Accel-Sim [build accelsim-commit-0e21d6d_modified_0.0_24-03-23- 4-28-49]

        *** GPGPU-Sim Simulator Version 4.2.0  [build gpgpu-sim_git-commit-b1ff53d4_modified_0.0] ***


GPGPU-Sim: Configuration options:

-save_embedded_ptx                      0 # saves ptx files embedded in binary as <n>.ptx
-keep                                   0 # keep intermediate files created by GPGPU-Sim when interfacing with external programs
-gpgpu_ptx_save_converted_ptxplus                    0 # Saved converted ptxplus to a file
-gpgpu_occupancy_sm_number                   80 # The SM number to pass to ptxas when getting register usage for computing GPU occupancy. This parameter is required in the config.
-ptx_opcode_latency_int           4,4,4,4,21 # Opcode latencies for integers <ADD,MAX,MUL,MAD,DIV,SHFL>Default 1,1,19,25,145,32
-ptx_opcode_latency_fp           4,4,4,4,39 # Opcode latencies for single precision floating points <ADD,MAX,MUL,MAD,DIV>Default 1,1,1,1,30
-ptx_opcode_latency_dp      64,64,64,64,330 # Opcode latencies for double precision floating points <ADD,MAX,MUL,MAD,DIV>Default 8,8,8,8,335
-ptx_opcode_latency_sfu                   21 # Opcode latencies for SFU instructionsDefault 8
-ptx_opcode_latency_tesnor                    8 # Opcode latencies for Tensor instructionsDefault 64
-ptx_opcode_initiation_int            2,2,2,2,2 # Opcode initiation intervals for integers <ADD,MAX,MUL,MAD,DIV,SHFL>Default 1,1,4,4,32,4
-ptx_opcode_initiation_fp            1,1,1,1,2 # Opcode initiation intervals for single precision floating points <ADD,MAX,MUL,MAD,DIV>Default 1,1,1,1,5
-ptx_opcode_initiation_dp      64,64,64,64,130 # Opcode initiation intervals for double precision floating points <ADD,MAX,MUL,MAD,DIV>Default 8,8,8,8,130
-ptx_opcode_initiation_sfu                    8 # Opcode initiation intervals for sfu instructionsDefault 8
-ptx_opcode_initiation_tensor                    8 # Opcode initiation intervals for tensor instructionsDefault 64
-cdp_latency         7200,8000,100,12000,1600 # CDP API latency <cudaStreamCreateWithFlags, cudaGetParameterBufferV2_init_perWarp, cudaGetParameterBufferV2_perKernel, cudaLaunchDeviceV2_init_perWarp, cudaLaunchDevicV2_perKernel>Default 7200,8000,100,12000,1600
-network_mode                           2 # Interconnection network mode
-inter_config_file                   mesh # Interconnection network config file
-icnt_in_buffer_limit                  512 # in_buffer_limit
-icnt_out_buffer_limit                  512 # out_buffer_limit
-icnt_subnets                           2 # subnets
-icnt_arbiter_algo                      1 # arbiter_algo
-icnt_verbose                           0 # inct_verbose
-icnt_grant_cycles                      1 # grant_cycles
-gpgpu_ptx_use_cuobjdump                    1 # Use cuobjdump to extract ptx and sass from binaries
-gpgpu_experimental_lib_support                    0 # Try to extract code from cuda libraries [Broken because of unknown cudaGetExportTable]
-checkpoint_option                      0 #  checkpointing flag (0 = no checkpoint)
-checkpoint_kernel                      1 #  checkpointing during execution of which kernel (1- 1st kernel)
-checkpoint_CTA                         0 #  checkpointing after # of CTA (< less than total CTA)
-resume_option                          0 #  resume flag (0 = no resume)
-resume_kernel                          0 #  Resume from which kernel (1= 1st kernel)
-resume_CTA                             0 #  resume from which CTA 
-checkpoint_CTA_t                       0 #  resume from which CTA 
-checkpoint_insn_Y                      0 #  resume from which CTA 
-gpgpu_ptx_convert_to_ptxplus                    0 # Convert SASS (native ISA) to ptxplus and run ptxplus
-gpgpu_ptx_force_max_capability                   80 # Force maximum compute capability
-gpgpu_ptx_inst_debug_to_file                    0 # Dump executed instructions' debug information to file
-gpgpu_ptx_inst_debug_file       inst_debug.txt # Executed instructions' debug output file
-gpgpu_ptx_inst_debug_thread_uid                    1 # Thread UID for executed instructions' debug output
-gpgpu_simd_model                       1 # 1 = post-dominator
-gpgpu_shader_core_pipeline              2048:32 # shader core pipeline config, i.e., {<nthread>:<warpsize>}
-gpgpu_tex_cache:l1  N:4:128:256,L:R:m:N:L,T:512:8,128:2 # per-shader L1 texture cache  (READ-ONLY) config  {<nsets>:<bsize>:<assoc>,<rep>:<wr>:<alloc>:<wr_alloc>,<mshr>:<N>:<merge>,<mq>:<rf>}
-gpgpu_const_cache:l1 N:128:64:8,L:R:f:N:L,S:2:64,4 # per-shader L1 constant memory cache  (READ-ONLY) config  {<nsets>:<bsize>:<assoc>,<rep>:<wr>:<alloc>:<wr_alloc>,<mshr>:<N>:<merge>,<mq>} 
-gpgpu_cache:il1     N:64:128:16,L:R:f:N:L,S:2:48,4 # shader L1 instruction cache config  {<nsets>:<bsize>:<assoc>,<rep>:<wr>:<alloc>:<wr_alloc>,<mshr>:<N>:<merge>,<mq>} 
-gpgpu_cache:dl1     S:4:128:256,L:T:m:L:L,A:1024:48,16:0,32 # per-shader L1 data cache config  {<nsets>:<bsize>:<assoc>,<rep>:<wr>:<alloc>:<wr_alloc>,<mshr>:<N>:<merge>,<mq> | none}
-gpgpu_l1_cache_write_ratio                   25 # L1D write ratio
-gpgpu_l1_banks                         4 # The number of L1 cache banks
-gpgpu_l1_banks_byte_interleaving                   32 # l1 banks byte interleaving granularity
-gpgpu_l1_banks_hashing_function                    0 # l1 banks hashing function
-gpgpu_l1_latency                      39 # L1 Hit Latency
-gpgpu_smem_latency                    29 # smem Latency
-gpgpu_cache:dl1PrefL1                 none # per-shader L1 data cache config  {<nsets>:<bsize>:<assoc>,<rep>:<wr>:<alloc>:<wr_alloc>,<mshr>:<N>:<merge>,<mq> | none}
-gpgpu_cache:dl1PrefShared                 none # per-shader L1 data cache config  {<nsets>:<bsize>:<assoc>,<rep>:<wr>:<alloc>:<wr_alloc>,<mshr>:<N>:<merge>,<mq> | none}
-gpgpu_gmem_skip_L1D                    0 # global memory access skip L1D cache (implements -Xptxas -dlcm=cg, default=no skip)
-gpgpu_perfect_mem                      0 # enable perfect memory mode (no cache miss)
-n_regfile_gating_group                    4 # group of lanes that should be read/written together)
-gpgpu_clock_gated_reg_file                    0 # enable clock gated reg file for power calculations
-gpgpu_clock_gated_lanes                    0 # enable clock gated lanes for power calculations
-gpgpu_shader_registers                65536 # Number of registers per shader core. Limits number of concurrent CTAs. (default 8192)
-gpgpu_registers_per_block                65536 # Maximum number of registers per CTA. (default 8192)
-gpgpu_ignore_resources_limitation                    0 # gpgpu_ignore_resources_limitation (default 0)
-gpgpu_shader_cta                       2 # Maximum number of concurrent CTAs in shader (default 32)
-gpgpu_num_cta_barriers                   16 # Maximum number of named barriers per CTA (default 16)
-gpgpu_n_clusters                     108 # number of processing clusters
-gpgpu_n_cores_per_cluster                    1 # number of simd cores per cluster
-gpgpu_n_cluster_ejection_buffer_size                   32 # number of packets in ejection buffer
-gpgpu_n_ldst_response_buffer_size                    2 # number of response packets in ld/st unit ejection buffer
-gpgpu_shmem_per_block                49152 # Size of shared memory per thread block or CTA (default 48kB)
-gpgpu_shmem_size                  167936 # Size of shared memory per shader core (default 16kB)
-gpgpu_shmem_option  0,8,16,32,64,100,164 # Option list of shared memory sizes
-gpgpu_unified_l1d_size                  256 # Size of unified data cache(L1D + shared memory) in KB
-gpgpu_adaptive_cache_config                    1 # adaptive_cache_config
-gpgpu_shmem_sizeDefault               167936 # Size of shared memory per shader core (default 16kB)
-gpgpu_shmem_size_PrefL1                16384 # Size of shared memory per shader core (default 16kB)
-gpgpu_shmem_size_PrefShared                16384 # Size of shared memory per shader core (default 16kB)
-gpgpu_shmem_num_banks                   32 # Number of banks in the shared memory in each shader core (default 16)
-gpgpu_shmem_limited_broadcast                    0 # Limit shared memory to do one broadcast per cycle (default on)
-gpgpu_shmem_warp_parts                    1 # Number of portions a warp is divided into for shared memory bank conflict check 
-gpgpu_mem_unit_ports                    1 # The number of memory transactions allowed per core cycle
-gpgpu_shmem_warp_parts                    1 # Number of portions a warp is divided into for shared memory bank conflict check 
-gpgpu_warpdistro_shader                   -1 # Specify which shader core to collect the warp size distribution from
-gpgpu_warp_issue_shader                    0 # Specify which shader core to collect the warp issue distribution from
-gpgpu_local_mem_map                    1 # Mapping from local memory space address to simulated GPU physical address space (default = enabled)
-gpgpu_num_reg_banks                   16 # Number of register banks (default = 8)
-gpgpu_reg_bank_use_warp_id                    0 # Use warp ID in mapping registers to banks (default = off)
-gpgpu_sub_core_model                    1 # Sub Core Volta/Pascal model (default = off)
-gpgpu_enable_specialized_operand_collector                    0 # enable_specialized_operand_collector
-gpgpu_operand_collector_num_units_sp                    4 # number of collector units (default = 4)
-gpgpu_operand_collector_num_units_dp                    0 # number of collector units (default = 0)
-gpgpu_operand_collector_num_units_sfu                    4 # number of collector units (default = 4)
-gpgpu_operand_collector_num_units_int                    0 # number of collector units (default = 0)
-gpgpu_operand_collector_num_units_tensor_core                    4 # number of collector units (default = 4)
-gpgpu_operand_collector_num_units_mem                    2 # number of collector units (default = 2)
-gpgpu_operand_collector_num_units_gen                    8 # number of collector units (default = 0)
-gpgpu_operand_collector_num_in_ports_sp                    1 # number of collector unit in ports (default = 1)
-gpgpu_operand_collector_num_in_ports_dp                    0 # number of collector unit in ports (default = 0)
-gpgpu_operand_collector_num_in_ports_sfu                    1 # number of collector unit in ports (default = 1)
-gpgpu_operand_collector_num_in_ports_int                    0 # number of collector unit in ports (default = 0)
-gpgpu_operand_collector_num_in_ports_tensor_core                    1 # number of collector unit in ports (default = 1)
-gpgpu_operand_collector_num_in_ports_mem                    1 # number of collector unit in ports (default = 1)
-gpgpu_operand_collector_num_in_ports_gen                    8 # number of collector unit in ports (default = 0)
-gpgpu_operand_collector_num_out_ports_sp                    1 # number of collector unit in ports (default = 1)
-gpgpu_operand_collector_num_out_ports_dp                    0 # number of collector unit in ports (default = 0)
-gpgpu_operand_collector_num_out_ports_sfu                    1 # number of collector unit in ports (default = 1)
-gpgpu_operand_collector_num_out_ports_int                    0 # number of collector unit in ports (default = 0)
-gpgpu_operand_collector_num_out_ports_tensor_core                    1 # number of collector unit in ports (default = 1)
-gpgpu_operand_collector_num_out_ports_mem                    1 # number of collector unit in ports (default = 1)
-gpgpu_operand_collector_num_out_ports_gen                    8 # number of collector unit in ports (default = 0)
-gpgpu_coalesce_arch                   80 # Coalescing arch (GT200 = 13, Fermi = 20)
-gpgpu_num_sched_per_core                    4 # Number of warp schedulers per core
-gpgpu_max_insn_issue_per_warp                    1 # Max number of instructions that can be issued per warp in one cycle by scheduler (either 1 or 2)
-gpgpu_dual_issue_diff_exec_units                    1 # should dual issue use two different execution unit resources (Default = 1)
-gpgpu_simt_core_sim_order                    1 # Select the simulation order of cores in a cluster (0=Fix, 1=Round-Robin)
-gpgpu_pipeline_widths 4,4,4,4,4,4,4,4,4,4,8,4,4 # Pipeline widths ID_OC_SP,ID_OC_DP,ID_OC_INT,ID_OC_SFU,ID_OC_MEM,OC_EX_SP,OC_EX_DP,OC_EX_INT,OC_EX_SFU,OC_EX_MEM,EX_WB,ID_OC_TENSOR_CORE,OC_EX_TENSOR_CORE
-gpgpu_tensor_core_avail                    1 # Tensor Core Available (default=0)
-gpgpu_num_sp_units                     4 # Number of SP units (default=1)
-gpgpu_num_dp_units                     4 # Number of DP units (default=0)
-gpgpu_num_int_units                    4 # Number of INT units (default=0)
-gpgpu_num_sfu_units                    4 # Number of SF units (default=1)
-gpgpu_num_tensor_core_units                    4 # Number of tensor_core units (default=1)
-gpgpu_num_mem_units                    1 # Number if ldst units (default=1) WARNING: not hooked up to anything
-gpgpu_scheduler                      lrr # Scheduler configuration: < lrr | gto | two_level_active > If two_level_active:<num_active_warps>:<inner_prioritization>:<outer_prioritization>For complete list of prioritization values see shader.h enum scheduler_prioritization_typeDefault: gto
-gpgpu_concurrent_kernel_sm                    0 # Support concurrent kernels on a SM (default = disabled)
-gpgpu_perfect_inst_const_cache                    1 # perfect inst and const cache mode, so all inst and const hits in the cache(default = disabled)
-gpgpu_inst_fetch_throughput                    4 # the number of fetched intruction per warp each cycle
-gpgpu_reg_file_port_throughput                    2 # the number ports of the register file
-specialized_unit_1         1,4,4,4,4,BRA # specialized unit config {<enabled>,<num_units>:<latency>:<initiation>,<ID_OC_SPEC>:<OC_EX_SPEC>,<NAME>}
-specialized_unit_2       1,4,200,4,4,TEX # specialized unit config {<enabled>,<num_units>:<latency>:<initiation>,<ID_OC_SPEC>:<OC_EX_SPEC>,<NAME>}
-specialized_unit_3     1,4,16,4,4,TENSOR # specialized unit config {<enabled>,<num_units>:<latency>:<initiation>,<ID_OC_SPEC>:<OC_EX_SPEC>,<NAME>}
-specialized_unit_4         1,4,4,4,4,UDP # specialized unit config {<enabled>,<num_units>:<latency>:<initiation>,<ID_OC_SPEC>:<OC_EX_SPEC>,<NAME>}
-specialized_unit_5         0,4,4,4,4,BRA # specialized unit config {<enabled>,<num_units>:<latency>:<initiation>,<ID_OC_SPEC>:<OC_EX_SPEC>,<NAME>}
-specialized_unit_6         0,4,4,4,4,BRA # specialized unit config {<enabled>,<num_units>:<latency>:<initiation>,<ID_OC_SPEC>:<OC_EX_SPEC>,<NAME>}
-specialized_unit_7         0,4,4,4,4,BRA # specialized unit config {<enabled>,<num_units>:<latency>:<initiation>,<ID_OC_SPEC>:<OC_EX_SPEC>,<NAME>}
-specialized_unit_8         0,4,4,4,4,BRA # specialized unit config {<enabled>,<num_units>:<latency>:<initiation>,<ID_OC_SPEC>:<OC_EX_SPEC>,<NAME>}
-gpgpu_perf_sim_memcpy                    1 # Fill the L2 cache on memcpy
-gpgpu_simple_dram_model                    0 # simple_dram_model with fixed latency and BW
-gpgpu_dram_scheduler                    1 # 0 = fifo, 1 = FR-FCFS (defaul)
-gpgpu_dram_partition_queues          64:64:64:64 # i2$:$2d:d2$:$2i
-l2_ideal                               0 # Use a ideal L2 cache that always hit
-gpgpu_cache:dl2     S:64:128:20,L:B:m:L:P,A:256:4,32:0,32 # unified banked L2 data cache config  {<nsets>:<bsize>:<assoc>,<rep>:<wr>:<alloc>:<wr_alloc>,<mshr>:<N>:<merge>,<mq>}
-gpgpu_cache:dl2_texture_only                    0 # L2 cache used for texture only
-gpgpu_n_mem                           64 # number of memory modules (e.g. memory controllers) in gpu
-gpgpu_n_sub_partition_per_mchannel                    2 # number of memory subpartition in each memory module
-gpgpu_n_mem_per_ctrlr                    1 # number of memory chips per memory controller
-gpgpu_memlatency_stat                   14 # track and display latency statistics 0x2 enables MC, 0x4 enables queue logs
-gpgpu_frfcfs_dram_sched_queue_size                   64 # 0 = unlimited (default); # entries per chip
-gpgpu_dram_return_queue_size                  192 # 0 = unlimited (default); # entries per chip
-gpgpu_dram_buswidth                   20 # default = 4 bytes (8 bytes per cycle at DDR)
-gpgpu_dram_burst_length                    4 # Burst length of each DRAM request (default = 4 data bus cycle)
-dram_data_command_freq_ratio                    2 # Frequency ratio between DRAM data bus and command bus (default = 2 times, i.e. DDR)
-gpgpu_dram_timing_opt nbk=16:CCD=1:RRD=2:RCD=9:RAS=21:RP=9:RC=30: CL=9:WL=2:CDLR=2:WR=8:nbkgrp=4:CCDL=1:RTPL=2 # DRAM timing parameters = {nbk:tCCD:tRRD:tRCD:tRAS:tRP:tRC:CL:WL:tCDLR:tWR:nbkgrp:tCCDL:tRTPL}
-gpgpu_l2_rop_latency                  187 # ROP queue latency (default 85)
-dram_latency                         100 # DRAM latency (default 30)
-dram_dual_bus_interface                    1 # dual_bus_interface (default = 0) 
-dram_bnk_indexing_policy                    0 # dram_bnk_indexing_policy (0 = normal indexing, 1 = Xoring with the higher bits) (Default = 0)
-dram_bnkgrp_indexing_policy                    1 # dram_bnkgrp_indexing_policy (0 = take higher bits, 1 = take lower bits) (Default = 0)
-dram_seperate_write_queue_enable                    0 # Seperate_Write_Queue_Enable
-dram_write_queue_size             32:28:16 # Write_Queue_Size
-dram_elimnate_rw_turnaround                    0 # elimnate_rw_turnaround i.e set tWTR and tRTW = 0
-icnt_flit_size                        40 # icnt_flit_size
-gpgpu_mem_addr_mapping dramid@8;00000000.00000000.00000000.00000000.0000RRRR.RRRRRRRR.RBBBCCCB.CCCSSSSS # mapping memory address to dram model {dramid@<start bit>;<memory address map>}
-gpgpu_mem_addr_test                    0 # run sweep test to check address mapping for aliased address
-gpgpu_mem_address_mask                    1 # 0 = old addressing mask, 1 = new addressing mask, 2 = new add. mask + flipped bank sel and chip sel bits
-gpgpu_memory_partition_indexing                    4 # 0 = no indexing, 1 = bitwise xoring, 2 = IPoly, 3 = custom indexing
-accelwattch_xml_file accelwattch_sass_sim.xml # AccelWattch XML file
-power_simulation_enabled                    0 # Turn on power simulator (1=On, 0=Off)
-power_per_cycle_dump                    0 # Dump detailed power output each cycle
-hw_perf_file_name            hw_perf.csv # Hardware Performance Statistics file
-hw_perf_bench_name                       # Kernel Name in Hardware Performance Statistics file
-power_simulation_mode                    0 # Switch performance counter input for power simulation (0=Sim, 1=HW, 2=HW-Sim Hybrid)
-dvfs_enabled                           0 # Turn on DVFS for power model
-aggregate_power_stats                    0 # Accumulate power across all kernels
-accelwattch_hybrid_perfsim_L1_RH                    0 # Get L1 Read Hits for Accelwattch-Hybrid from Accel-Sim
-accelwattch_hybrid_perfsim_L1_RM                    0 # Get L1 Read Misses for Accelwattch-Hybrid from Accel-Sim
-accelwattch_hybrid_perfsim_L1_WH                    0 # Get L1 Write Hits for Accelwattch-Hybrid from Accel-Sim
-accelwattch_hybrid_perfsim_L1_WM                    0 # Get L1 Write Misses for Accelwattch-Hybrid from Accel-Sim
-accelwattch_hybrid_perfsim_L2_RH                    0 # Get L2 Read Hits for Accelwattch-Hybrid from Accel-Sim
-accelwattch_hybrid_perfsim_L2_RM                    0 # Get L2 Read Misses for Accelwattch-Hybrid from Accel-Sim
-accelwattch_hybrid_perfsim_L2_WH                    0 # Get L2 Write Hits for Accelwattch-Hybrid from Accel-Sim
-accelwattch_hybrid_perfsim_L2_WM                    0 # Get L2 Write Misses for Accelwattch-Hybrid from Accel-Sim
-accelwattch_hybrid_perfsim_CC_ACC                    0 # Get Constant Cache Acesses for Accelwattch-Hybrid from Accel-Sim
-accelwattch_hybrid_perfsim_SHARED_ACC                    0 # Get Shared Memory Acesses for Accelwattch-Hybrid from Accel-Sim
-accelwattch_hybrid_perfsim_DRAM_RD                    0 # Get DRAM Reads for Accelwattch-Hybrid from Accel-Sim
-accelwattch_hybrid_perfsim_DRAM_WR                    0 # Get DRAM Writes for Accelwattch-Hybrid from Accel-Sim
-accelwattch_hybrid_perfsim_NOC                    0 # Get Interconnect Acesses for Accelwattch-Hybrid from Accel-Sim
-accelwattch_hybrid_perfsim_PIPE_DUTY                    0 # Get Pipeline Duty Cycle Acesses for Accelwattch-Hybrid from Accel-Sim
-accelwattch_hybrid_perfsim_NUM_SM_IDLE                    0 # Get Number of Idle SMs for Accelwattch-Hybrid from Accel-Sim
-accelwattch_hybrid_perfsim_CYCLES                    0 # Get Executed Cycles for Accelwattch-Hybrid from Accel-Sim
-accelwattch_hybrid_perfsim_VOLTAGE                    0 # Get Chip Voltage for Accelwattch-Hybrid from Accel-Sim
-power_trace_enabled                    0 # produce a file for the power trace (1=On, 0=Off)
-power_trace_zlevel                     6 # Compression level of the power trace output log (0=no comp, 9=highest)
-steady_power_levels_enabled                    0 # produce a file for the steady power levels (1=On, 0=Off)
-steady_state_definition                  8:4 # allowed deviation:number of samples
-gpgpu_max_cycle                        0 # terminates gpu simulation early (0 = no limit)
-gpgpu_max_insn                         0 # terminates gpu simulation early (0 = no limit)
-gpgpu_max_cta                          0 # terminates gpu simulation early (0 = no limit)
-gpgpu_max_completed_cta                    0 # terminates gpu simulation early (0 = no limit)
-gpgpu_runtime_stat                   500 # display runtime statistics such as dram utilization {<freq>:<flag>}
-liveness_message_freq                    1 # Minimum number of seconds between simulation liveness messages (0 = always print)
-gpgpu_compute_capability_major                    8 # Major compute capability version number
-gpgpu_compute_capability_minor                    0 # Minor compute capability version number
-gpgpu_flush_l1_cache                    1 # Flush L1 cache at the end of each kernel call
-gpgpu_flush_l2_cache                    0 # Flush L2 cache at the end of each kernel call
-gpgpu_deadlock_detect                    1 # Stop the simulation at deadlock (1=on (default), 0=off)
-gpgpu_ptx_instruction_classification                    0 # if enabled will classify ptx instruction types per kernel (Max 255 kernels now)
-gpgpu_ptx_sim_mode                     0 # Select between Performance (default) or Functional simulation (1)
-gpgpu_clock_domains 1410:1410:1410:1512.0 # Clock Domain Frequencies in MhZ {<Core Clock>:<ICNT Clock>:<L2 Clock>:<DRAM Clock>}
-gpgpu_max_concurrent_kernel                  128 # maximum kernels that can run concurrently on GPU, set this value according to max resident grids for your compute capability
-gpgpu_cflog_interval                    0 # Interval between each snapshot in control flow logger
-visualizer_enabled                     0 # Turn on visualizer output (1=On, 0=Off)
-visualizer_outputfile                 NULL # Specifies the output log file for visualizer
-visualizer_zlevel                      6 # Compression level of the visualizer output log (0=no comp, 9=highest)
-gpgpu_stack_size_limit                 1024 # GPU thread stack size
-gpgpu_heap_size_limit              8388608 # GPU malloc heap size 
-gpgpu_runtime_sync_depth_limit                    2 # GPU device runtime synchronize depth
-gpgpu_runtime_pending_launch_count_limit                 2048 # GPU device runtime pending launch count
-trace_enabled                          0 # Turn on traces
-trace_components                    none # comma seperated list of traces to enable. Complete list found in trace_streams.tup. Default none
-trace_sampling_core                    0 # The core which is printed using CORE_DPRINTF. Default 0
-trace_sampling_memory_partition                   -1 # The memory partition which is printed using MEMPART_DPRINTF. Default -1 (i.e. all)
-enable_ptx_file_line_stats                    1 # Turn on PTX source line statistic profiling. (1 = On)
-ptx_line_stats_filename gpgpu_inst_stats.txt # Output file for PTX source line statistics.
-gpgpu_kernel_launch_latency                    0 # Kernel launch latency in cycles. Default: 0
-gpgpu_cdp_enabled                      0 # Turn on CDP
-gpgpu_TB_launch_latency                    0 # thread block launch latency in cycles. Default: 0
-trace               /home/t-leiwang/lut_workspace/accel-sim-framework/util/tracer_nvbit/traces-sm80[2048*1,3456*8,2560][64,64,32][32,32,32]_2_hmma/kernelslist.g # traces kernel filetraces kernel file directory
-trace_opcode_latency_initiation_int                  2,2 # Opcode latencies and initiation for integers in trace driven mode <latency,initiation>
-trace_opcode_latency_initiation_sp                  2,1 # Opcode latencies and initiation for sp in trace driven mode <latency,initiation>
-trace_opcode_latency_initiation_dp                  8,4 # Opcode latencies and initiation for dp in trace driven mode <latency,initiation>
-trace_opcode_latency_initiation_sfu                 21,8 # Opcode latencies and initiation for sfu in trace driven mode <latency,initiation>
-trace_opcode_latency_initiation_tensor                16,16 # Opcode latencies and initiation for tensor in trace driven mode <latency,initiation>
-trace_opcode_latency_initiation_spec_op_1                  4,4 # specialized unit config <latency,initiation>
-trace_opcode_latency_initiation_spec_op_2                200,4 # specialized unit config <latency,initiation>
-trace_opcode_latency_initiation_spec_op_3                16,16 # specialized unit config <latency,initiation>
-trace_opcode_latency_initiation_spec_op_4                  4,1 # specialized unit config <latency,initiation>
-trace_opcode_latency_initiation_spec_op_5                  4,4 # specialized unit config <latency,initiation>
-trace_opcode_latency_initiation_spec_op_6                  4,4 # specialized unit config <latency,initiation>
-trace_opcode_latency_initiation_spec_op_7                  4,4 # specialized unit config <latency,initiation>
-trace_opcode_latency_initiation_spec_op_8                  4,4 # specialized unit config <latency,initiation>
DRAM Timing Options:
nbk                                    16 # number of banks
CCD                                     1 # column to column delay
RRD                                     2 # minimal delay between activation of rows in different banks
RCD                                     9 # row to column delay
RAS                                    21 # time needed to activate row
RP                                      9 # time needed to precharge (deactivate) row
RC                                     30 # row cycle time
CDLR                                    2 # switching from write to read (changes tWTR)
WR                                      8 # last data-in to row precharge
CL                                      9 # CAS latency
WL                                      2 # Write latency
nbkgrp                                  4 # number of bank groups
CCDL                                    1 # column to column delay between accesses to different bank groups
RTPL                                    2 # read to precharge delay between accesses to different bank groups
Total number of memory sub partition = 128
addr_dec_mask[CHIP]  = 0000000000003f00 	high:14 low:8
addr_dec_mask[BK]    = 00000000001c4000 	high:21 low:14
addr_dec_mask[ROW]   = 00000003ffe00000 	high:34 low:21
addr_dec_mask[COL]   = 00000000000380ff 	high:18 low:0
addr_dec_mask[BURST] = 000000000000001f 	high:5 low:0
sub_partition_id_mask = 0000000000004000
GPGPU-Sim uArch: clock freqs: 1410000000.000000:1410000000.000000:1410000000.000000:1512000000.000000
GPGPU-Sim uArch: clock periods: 0.00000000070921985816:0.00000000070921985816:0.00000000070921985816:0.00000000066137566138
*** Initializing Memory Statistics ***
GPGPU-Sim uArch: performance model initialization complete.
launching memcpy command : MemcpyHtoD,0x00007f096c000000,10485760
launching memcpy command : MemcpyHtoD,0x00007f096ca00000,17694720
launching memcpy command : MemcpyHtoD,0x00007f096dc00000,14155776
Processing kernel /home/t-leiwang/lut_workspace/accel-sim-framework/util/tracer_nvbit/traces-sm80[2048*1,3456*8,2560][64,64,32][32,32,32]_2_hmma/kernel-1.traceg
-kernel name = _ZN7cutlass6KernelINS_4gemm6kernel4GemmINS1_11threadblock12MmaPipelinedINS1_9GemmShapeILi64ELi64ELi32EEENS_9transform11threadblock22PredicatedTileIteratorINS_11MatrixShapeILi64ELi32EEENS_6half_tENS_6layout8RowMajorELi1ENS8_29PitchLinearWarpRakedThreadMapINS_16PitchLinearShapeILi32ELi64EEELi128ENSH_ILi4ELi8EEELi8EEELi8ELb0ENSE_9NoPermuteEEENS9_19RegularTileIteratorISC_SD_NSE_37RowMajorTensorOpMultiplicandCrosswiseILi16ELi32EEELi0ESK_Li16EEENSA_INSB_ILi32ELi64EEESD_NSE_11ColumnMajorELi0ESK_Li8ELb0ESL_EENSN_ISR_SD_NSE_40ColumnMajorTensorOpMultiplicandCrosswiseILi16ELi32EEELi1ESK_Li16EEESD_SF_NS4_9MmaPolicyINS1_4warp11MmaTensorOpINS6_ILi32ELi32ELi32EEESD_SP_SD_SV_SD_SF_NSY_17MmaTensorOpPolicyINS_4arch3MmaINS6_ILi16ELi8ELi16EEELi32ESD_SF_SD_SS_SD_SF_NS12_13OpMultiplyAddEEENSB_ILi1ELi1EEEEELi1ELb0EbEENSB_ILi0ELi0EEES1A_Li1EEENS_21NumericArrayConverterISD_SD_Li16ELNS_15FloatRoundStyleE2ENS8_6thread14UnaryTransform8IdentityEEES1H_bEENS_8epilogue11threadblock8EpilogueIS7_S19_Li1ENS1K_22PredicatedTileIteratorINS1K_26OutputTileOptimalThreadMapINS1K_15OutputTileShapeILi64ELi8ELi2ELi1ELi1EEENS1O_ILi1ELi4ELi1ELi1ELi4EEELi128ELi8ELi16EEESD_Lb0ESL_Lb0EEENS1J_4warp24FragmentIteratorTensorOpIS10_S14_SD_NS_5ArrayISD_Li4ELb0EEESF_EENS1T_20TileIteratorTensorOpIS10_S14_SD_SF_EENS1K_18SharedLoadIteratorINS1R_18CompactedThreadMapESD_Li16EEENS1J_6thread17LinearCombinationISD_Li8ESD_SD_LNS23_9ScaleType4KindE0ELS1D_2ESD_EENSB_ILi0ELi16EEELi1ELi1EEENS4_30GemmIdentityThreadblockSwizzleILi1EEELb0EEEEEvNT_6ParamsE
-kernel id = 1
-grid dim = (32,54,1)
-block dim = (128,1,1)
-shmem = 16384
-nregs = 92
-binary version = 80
-cuda stream id = 0
-shmem base_addr = 0x00007f09aa000000
-local mem base_addr = 0x00007f09a8000000
-nvbit version = 1.5.5
-accelsim tracer version = 3
Header info loaded for kernel command : /home/t-leiwang/lut_workspace/accel-sim-framework/util/tracer_nvbit/traces-sm80[2048*1,3456*8,2560][64,64,32][32,32,32]_2_hmma/kernel-1.traceg
launching kernel name: _ZN7cutlass6KernelINS_4gemm6kernel4GemmINS1_11threadblock12MmaPipelinedINS1_9GemmShapeILi64ELi64ELi32EEENS_9transform11threadblock22PredicatedTileIteratorINS_11MatrixShapeILi64ELi32EEENS_6half_tENS_6layout8RowMajorELi1ENS8_29PitchLinearWarpRakedThreadMapINS_16PitchLinearShapeILi32ELi64EEELi128ENSH_ILi4ELi8EEELi8EEELi8ELb0ENSE_9NoPermuteEEENS9_19RegularTileIteratorISC_SD_NSE_37RowMajorTensorOpMultiplicandCrosswiseILi16ELi32EEELi0ESK_Li16EEENSA_INSB_ILi32ELi64EEESD_NSE_11ColumnMajorELi0ESK_Li8ELb0ESL_EENSN_ISR_SD_NSE_40ColumnMajorTensorOpMultiplicandCrosswiseILi16ELi32EEELi1ESK_Li16EEESD_SF_NS4_9MmaPolicyINS1_4warp11MmaTensorOpINS6_ILi32ELi32ELi32EEESD_SP_SD_SV_SD_SF_NSY_17MmaTensorOpPolicyINS_4arch3MmaINS6_ILi16ELi8ELi16EEELi32ESD_SF_SD_SS_SD_SF_NS12_13OpMultiplyAddEEENSB_ILi1ELi1EEEEELi1ELb0EbEENSB_ILi0ELi0EEES1A_Li1EEENS_21NumericArrayConverterISD_SD_Li16ELNS_15FloatRoundStyleE2ENS8_6thread14UnaryTransform8IdentityEEES1H_bEENS_8epilogue11threadblock8EpilogueIS7_S19_Li1ENS1K_22PredicatedTileIteratorINS1K_26OutputTileOptimalThreadMapINS1K_15OutputTileShapeILi64ELi8ELi2ELi1ELi1EEENS1O_ILi1ELi4ELi1ELi1ELi4EEELi128ELi8ELi16EEESD_Lb0ESL_Lb0EEENS1J_4warp24FragmentIteratorTensorOpIS10_S14_SD_NS_5ArrayISD_Li4ELb0EEESF_EENS1T_20TileIteratorTensorOpIS10_S14_SD_SF_EENS1K_18SharedLoadIteratorINS1R_18CompactedThreadMapESD_Li16EEENS1J_6thread17LinearCombinationISD_Li8ESD_SD_LNS23_9ScaleType4KindE0ELS1D_2ESD_EENSB_ILi0ELi16EEELi1ELi1EEENS4_30GemmIdentityThreadblockSwizzleILi1EEELb0EEEEEvNT_6ParamsE uid: 1
GPGPU-Sim uArch: Shader 0 bind to kernel 1 '_ZN7cutlass6KernelINS_4gemm6kernel4GemmINS1_11threadblock12MmaPipelinedINS1_9GemmShapeILi64ELi64ELi32EEENS_9transform11threadblock22PredicatedTileIteratorINS_11MatrixShapeILi64ELi32EEENS_6half_tENS_6layout8RowMajorELi1ENS8_29PitchLinearWarpRakedThreadMapINS_16PitchLinearShapeILi32ELi64EEELi128ENSH_ILi4ELi8EEELi8EEELi8ELb0ENSE_9NoPermuteEEENS9_19RegularTileIteratorISC_SD_NSE_37RowMajorTensorOpMultiplicandCrosswiseILi16ELi32EEELi0ESK_Li16EEENSA_INSB_ILi32ELi64EEESD_NSE_11ColumnMajorELi0ESK_Li8ELb0ESL_EENSN_ISR_SD_NSE_40ColumnMajorTensorOpMultiplicandCrosswiseILi16ELi32EEELi1ESK_Li16EEESD_SF_NS4_9MmaPolicyINS1_4warp11MmaTensorOpINS6_ILi32ELi32ELi32EEESD_SP_SD_SV_SD_SF_NSY_17MmaTensorOpPolicyINS_4arch3MmaINS6_ILi16ELi8ELi16EEELi32ESD_SF_SD_SS_SD_SF_NS12_13OpMultiplyAddEEENSB_ILi1ELi1EEEEELi1ELb0EbEENSB_ILi0ELi0EEES1A_Li1EEENS_21NumericArrayConverterISD_SD_Li16ELNS_15FloatRoundStyleE2ENS8_6thread14UnaryTransform8IdentityEEES1H_bEENS_8epilogue11threadblock8EpilogueIS7_S19_Li1ENS1K_22PredicatedTileIteratorINS1K_26OutputTileOptimalThreadMapINS1K_15OutputTileShapeILi64ELi8ELi2ELi1ELi1EEENS1O_ILi1ELi4ELi1ELi1ELi4EEELi128ELi8ELi16EEESD_Lb0ESL_Lb0EEENS1J_4warp24FragmentIteratorTensorOpIS10_S14_SD_NS_5ArrayISD_Li4ELb0EEESF_EENS1T_20TileIteratorTensorOpIS10_S14_SD_SF_EENS1K_18SharedLoadIteratorINS1R_18CompactedThreadMapESD_Li16EEENS1J_6thread17LinearCombinationISD_Li8ESD_SD_LNS23_9ScaleType4KindE0ELS1D_2ESD_EENSB_ILi0ELi16EEELi1ELi1EEENS4_30GemmIdentityThreadblockSwizzleILi1EEELb0EEEEEvNT_6ParamsE'
GPGPU-Sim uArch: CTA/core = 2, limited by: cta_limit
GPGPU-Sim: Reconfigure L1 cache to 224KB
thread block = 0,0,0
GPGPU-Sim uArch: Shader 1 bind to kernel 1 '_ZN7cutlass6KernelINS_4gemm6kernel4GemmINS1_11threadblock12MmaPipelinedINS1_9GemmShapeILi64ELi64ELi32EEENS_9transform11threadblock22PredicatedTileIteratorINS_11MatrixShapeILi64ELi32EEENS_6half_tENS_6layout8RowMajorELi1ENS8_29PitchLinearWarpRakedThreadMapINS_16PitchLinearShapeILi32ELi64EEELi128ENSH_ILi4ELi8EEELi8EEELi8ELb0ENSE_9NoPermuteEEENS9_19RegularTileIteratorISC_SD_NSE_37RowMajorTensorOpMultiplicandCrosswiseILi16ELi32EEELi0ESK_Li16EEENSA_INSB_ILi32ELi64EEESD_NSE_11ColumnMajorELi0ESK_Li8ELb0ESL_EENSN_ISR_SD_NSE_40ColumnMajorTensorOpMultiplicandCrosswiseILi16ELi32EEELi1ESK_Li16EEESD_SF_NS4_9MmaPolicyINS1_4warp11MmaTensorOpINS6_ILi32ELi32ELi32EEESD_SP_SD_SV_SD_SF_NSY_17MmaTensorOpPolicyINS_4arch3MmaINS6_ILi16ELi8ELi16EEELi32ESD_SF_SD_SS_SD_SF_NS12_13OpMultiplyAddEEENSB_ILi1ELi1EEEEELi1ELb0EbEENSB_ILi0ELi0EEES1A_Li1EEENS_21NumericArrayConverterISD_SD_Li16ELNS_15FloatRoundStyleE2ENS8_6thread14UnaryTransform8IdentityEEES1H_bEENS_8epilogue11threadblock8EpilogueIS7_S19_Li1ENS1K_22PredicatedTileIteratorINS1K_26OutputTileOptimalThreadMapINS1K_15OutputTileShapeILi64ELi8ELi2ELi1ELi1EEENS1O_ILi1ELi4ELi1ELi1ELi4EEELi128ELi8ELi16EEESD_Lb0ESL_Lb0EEENS1J_4warp24FragmentIteratorTensorOpIS10_S14_SD_NS_5ArrayISD_Li4ELb0EEESF_EENS1T_20TileIteratorTensorOpIS10_S14_SD_SF_EENS1K_18SharedLoadIteratorINS1R_18CompactedThreadMapESD_Li16EEENS1J_6thread17LinearCombinationISD_Li8ESD_SD_LNS23_9ScaleType4KindE0ELS1D_2ESD_EENSB_ILi0ELi16EEELi1ELi1EEENS4_30GemmIdentityThreadblockSwizzleILi1EEELb0EEEEEvNT_6ParamsE'
thread block = 1,0,0
GPGPU-Sim uArch: Shader 2 bind to kernel 1 '_ZN7cutlass6KernelINS_4gemm6kernel4GemmINS1_11threadblock12MmaPipelinedINS1_9GemmShapeILi64ELi64ELi32EEENS_9transform11threadblock22PredicatedTileIteratorINS_11MatrixShapeILi64ELi32EEENS_6half_tENS_6layout8RowMajorELi1ENS8_29PitchLinearWarpRakedThreadMapINS_16PitchLinearShapeILi32ELi64EEELi128ENSH_ILi4ELi8EEELi8EEELi8ELb0ENSE_9NoPermuteEEENS9_19RegularTileIteratorISC_SD_NSE_37RowMajorTensorOpMultiplicandCrosswiseILi16ELi32EEELi0ESK_Li16EEENSA_INSB_ILi32ELi64EEESD_NSE_11ColumnMajorELi0ESK_Li8ELb0ESL_EENSN_ISR_SD_NSE_40ColumnMajorTensorOpMultiplicandCrosswiseILi16ELi32EEELi1ESK_Li16EEESD_SF_NS4_9MmaPolicyINS1_4warp11MmaTensorOpINS6_ILi32ELi32ELi32EEESD_SP_SD_SV_SD_SF_NSY_17MmaTensorOpPolicyINS_4arch3MmaINS6_ILi16ELi8ELi16EEELi32ESD_SF_SD_SS_SD_SF_NS12_13OpMultiplyAddEEENSB_ILi1ELi1EEEEELi1ELb0EbEENSB_ILi0ELi0EEES1A_Li1EEENS_21NumericArrayConverterISD_SD_Li16ELNS_15FloatRoundStyleE2ENS8_6thread14UnaryTransform8IdentityEEES1H_bEENS_8epilogue11threadblock8EpilogueIS7_S19_Li1ENS1K_22PredicatedTileIteratorINS1K_26OutputTileOptimalThreadMapINS1K_15OutputTileShapeILi64ELi8ELi2ELi1ELi1EEENS1O_ILi1ELi4ELi1ELi1ELi4EEELi128ELi8ELi16EEESD_Lb0ESL_Lb0EEENS1J_4warp24FragmentIteratorTensorOpIS10_S14_SD_NS_5ArrayISD_Li4ELb0EEESF_EENS1T_20TileIteratorTensorOpIS10_S14_SD_SF_EENS1K_18SharedLoadIteratorINS1R_18CompactedThreadMapESD_Li16EEENS1J_6thread17LinearCombinationISD_Li8ESD_SD_LNS23_9ScaleType4KindE0ELS1D_2ESD_EENSB_ILi0ELi16EEELi1ELi1EEENS4_30GemmIdentityThreadblockSwizzleILi1EEELb0EEEEEvNT_6ParamsE'
thread block = 2,0,0
GPGPU-Sim uArch: Shader 3 bind to kernel 1 '_ZN7cutlass6KernelINS_4gemm6kernel4GemmINS1_11threadblock12MmaPipelinedINS1_9GemmShapeILi64ELi64ELi32EEENS_9transform11threadblock22PredicatedTileIteratorINS_11MatrixShapeILi64ELi32EEENS_6half_tENS_6layout8RowMajorELi1ENS8_29PitchLinearWarpRakedThreadMapINS_16PitchLinearShapeILi32ELi64EEELi128ENSH_ILi4ELi8EEELi8EEELi8ELb0ENSE_9NoPermuteEEENS9_19RegularTileIteratorISC_SD_NSE_37RowMajorTensorOpMultiplicandCrosswiseILi16ELi32EEELi0ESK_Li16EEENSA_INSB_ILi32ELi64EEESD_NSE_11ColumnMajorELi0ESK_Li8ELb0ESL_EENSN_ISR_SD_NSE_40ColumnMajorTensorOpMultiplicandCrosswiseILi16ELi32EEELi1ESK_Li16EEESD_SF_NS4_9MmaPolicyINS1_4warp11MmaTensorOpINS6_ILi32ELi32ELi32EEESD_SP_SD_SV_SD_SF_NSY_17MmaTensorOpPolicyINS_4arch3MmaINS6_ILi16ELi8ELi16EEELi32ESD_SF_SD_SS_SD_SF_NS12_13OpMultiplyAddEEENSB_ILi1ELi1EEEEELi1ELb0EbEENSB_ILi0ELi0EEES1A_Li1EEENS_21NumericArrayConverterISD_SD_Li16ELNS_15FloatRoundStyleE2ENS8_6thread14UnaryTransform8IdentityEEES1H_bEENS_8epilogue11threadblock8EpilogueIS7_S19_Li1ENS1K_22PredicatedTileIteratorINS1K_26OutputTileOptimalThreadMapINS1K_15OutputTileShapeILi64ELi8ELi2ELi1ELi1EEENS1O_ILi1ELi4ELi1ELi1ELi4EEELi128ELi8ELi16EEESD_Lb0ESL_Lb0EEENS1J_4warp24FragmentIteratorTensorOpIS10_S14_SD_NS_5ArrayISD_Li4ELb0EEESF_EENS1T_20TileIteratorTensorOpIS10_S14_SD_SF_EENS1K_18SharedLoadIteratorINS1R_18CompactedThreadMapESD_Li16EEENS1J_6thread17LinearCombinationISD_Li8ESD_SD_LNS23_9ScaleType4KindE0ELS1D_2ESD_EENSB_ILi0ELi16EEELi1ELi1EEENS4_30GemmIdentityThreadblockSwizzleILi1EEELb0EEEEEvNT_6ParamsE'
thread block = 3,0,0
GPGPU-Sim uArch: Shader 4 bind to kernel 1 '_ZN7cutlass6KernelINS_4gemm6kernel4GemmINS1_11threadblock12MmaPipelinedINS1_9GemmShapeILi64ELi64ELi32EEENS_9transform11threadblock22PredicatedTileIteratorINS_11MatrixShapeILi64ELi32EEENS_6half_tENS_6layout8RowMajorELi1ENS8_29PitchLinearWarpRakedThreadMapINS_16PitchLinearShapeILi32ELi64EEELi128ENSH_ILi4ELi8EEELi8EEELi8ELb0ENSE_9NoPermuteEEENS9_19RegularTileIteratorISC_SD_NSE_37RowMajorTensorOpMultiplicandCrosswiseILi16ELi32EEELi0ESK_Li16EEENSA_INSB_ILi32ELi64EEESD_NSE_11ColumnMajorELi0ESK_Li8ELb0ESL_EENSN_ISR_SD_NSE_40ColumnMajorTensorOpMultiplicandCrosswiseILi16ELi32EEELi1ESK_Li16EEESD_SF_NS4_9MmaPolicyINS1_4warp11MmaTensorOpINS6_ILi32ELi32ELi32EEESD_SP_SD_SV_SD_SF_NSY_17MmaTensorOpPolicyINS_4arch3MmaINS6_ILi16ELi8ELi16EEELi32ESD_SF_SD_SS_SD_SF_NS12_13OpMultiplyAddEEENSB_ILi1ELi1EEEEELi1ELb0EbEENSB_ILi0ELi0EEES1A_Li1EEENS_21NumericArrayConverterISD_SD_Li16ELNS_15FloatRoundStyleE2ENS8_6thread14UnaryTransform8IdentityEEES1H_bEENS_8epilogue11threadblock8EpilogueIS7_S19_Li1ENS1K_22PredicatedTileIteratorINS1K_26OutputTileOptimalThreadMapINS1K_15OutputTileShapeILi64ELi8ELi2ELi1ELi1EEENS1O_ILi1ELi4ELi1ELi1ELi4EEELi128ELi8ELi16EEESD_Lb0ESL_Lb0EEENS1J_4warp24FragmentIteratorTensorOpIS10_S14_SD_NS_5ArrayISD_Li4ELb0EEESF_EENS1T_20TileIteratorTensorOpIS10_S14_SD_SF_EENS1K_18SharedLoadIteratorINS1R_18CompactedThreadMapESD_Li16EEENS1J_6thread17LinearCombinationISD_Li8ESD_SD_LNS23_9ScaleType4KindE0ELS1D_2ESD_EENSB_ILi0ELi16EEELi1ELi1EEENS4_30GemmIdentityThreadblockSwizzleILi1EEELb0EEEEEvNT_6ParamsE'
thread block = 4,0,0
GPGPU-Sim uArch: Shader 5 bind to kernel 1 '_ZN7cutlass6KernelINS_4gemm6kernel4GemmINS1_11threadblock12MmaPipelinedINS1_9GemmShapeILi64ELi64ELi32EEENS_9transform11threadblock22PredicatedTileIteratorINS_11MatrixShapeILi64ELi32EEENS_6half_tENS_6layout8RowMajorELi1ENS8_29PitchLinearWarpRakedThreadMapINS_16PitchLinearShapeILi32ELi64EEELi128ENSH_ILi4ELi8EEELi8EEELi8ELb0ENSE_9NoPermuteEEENS9_19RegularTileIteratorISC_SD_NSE_37RowMajorTensorOpMultiplicandCrosswiseILi16ELi32EEELi0ESK_Li16EEENSA_INSB_ILi32ELi64EEESD_NSE_11ColumnMajorELi0ESK_Li8ELb0ESL_EENSN_ISR_SD_NSE_40ColumnMajorTensorOpMultiplicandCrosswiseILi16ELi32EEELi1ESK_Li16EEESD_SF_NS4_9MmaPolicyINS1_4warp11MmaTensorOpINS6_ILi32ELi32ELi32EEESD_SP_SD_SV_SD_SF_NSY_17MmaTensorOpPolicyINS_4arch3MmaINS6_ILi16ELi8ELi16EEELi32ESD_SF_SD_SS_SD_SF_NS12_13OpMultiplyAddEEENSB_ILi1ELi1EEEEELi1ELb0EbEENSB_ILi0ELi0EEES1A_Li1EEENS_21NumericArrayConverterISD_SD_Li16ELNS_15FloatRoundStyleE2ENS8_6thread14UnaryTransform8IdentityEEES1H_bEENS_8epilogue11threadblock8EpilogueIS7_S19_Li1ENS1K_22PredicatedTileIteratorINS1K_26OutputTileOptimalThreadMapINS1K_15OutputTileShapeILi64ELi8ELi2ELi1ELi1EEENS1O_ILi1ELi4ELi1ELi1ELi4EEELi128ELi8ELi16EEESD_Lb0ESL_Lb0EEENS1J_4warp24FragmentIteratorTensorOpIS10_S14_SD_NS_5ArrayISD_Li4ELb0EEESF_EENS1T_20TileIteratorTensorOpIS10_S14_SD_SF_EENS1K_18SharedLoadIteratorINS1R_18CompactedThreadMapESD_Li16EEENS1J_6thread17LinearCombinationISD_Li8ESD_SD_LNS23_9ScaleType4KindE0ELS1D_2ESD_EENSB_ILi0ELi16EEELi1ELi1EEENS4_30GemmIdentityThreadblockSwizzleILi1EEELb0EEEEEvNT_6ParamsE'
thread block = 5,0,0
GPGPU-Sim uArch: Shader 6 bind to kernel 1 '_ZN7cutlass6KernelINS_4gemm6kernel4GemmINS1_11threadblock12MmaPipelinedINS1_9GemmShapeILi64ELi64ELi32EEENS_9transform11threadblock22PredicatedTileIteratorINS_11MatrixShapeILi64ELi32EEENS_6half_tENS_6layout8RowMajorELi1ENS8_29PitchLinearWarpRakedThreadMapINS_16PitchLinearShapeILi32ELi64EEELi128ENSH_ILi4ELi8EEELi8EEELi8ELb0ENSE_9NoPermuteEEENS9_19RegularTileIteratorISC_SD_NSE_37RowMajorTensorOpMultiplicandCrosswiseILi16ELi32EEELi0ESK_Li16EEENSA_INSB_ILi32ELi64EEESD_NSE_11ColumnMajorELi0ESK_Li8ELb0ESL_EENSN_ISR_SD_NSE_40ColumnMajorTensorOpMultiplicandCrosswiseILi16ELi32EEELi1ESK_Li16EEESD_SF_NS4_9MmaPolicyINS1_4warp11MmaTensorOpINS6_ILi32ELi32ELi32EEESD_SP_SD_SV_SD_SF_NSY_17MmaTensorOpPolicyINS_4arch3MmaINS6_ILi16ELi8ELi16EEELi32ESD_SF_SD_SS_SD_SF_NS12_13OpMultiplyAddEEENSB_ILi1ELi1EEEEELi1ELb0EbEENSB_ILi0ELi0EEES1A_Li1EEENS_21NumericArrayConverterISD_SD_Li16ELNS_15FloatRoundStyleE2ENS8_6thread14UnaryTransform8IdentityEEES1H_bEENS_8epilogue11threadblock8EpilogueIS7_S19_Li1ENS1K_22PredicatedTileIteratorINS1K_26OutputTileOptimalThreadMapINS1K_15OutputTileShapeILi64ELi8ELi2ELi1ELi1EEENS1O_ILi1ELi4ELi1ELi1ELi4EEELi128ELi8ELi16EEESD_Lb0ESL_Lb0EEENS1J_4warp24FragmentIteratorTensorOpIS10_S14_SD_NS_5ArrayISD_Li4ELb0EEESF_EENS1T_20TileIteratorTensorOpIS10_S14_SD_SF_EENS1K_18SharedLoadIteratorINS1R_18CompactedThreadMapESD_Li16EEENS1J_6thread17LinearCombinationISD_Li8ESD_SD_LNS23_9ScaleType4KindE0ELS1D_2ESD_EENSB_ILi0ELi16EEELi1ELi1EEENS4_30GemmIdentityThreadblockSwizzleILi1EEELb0EEEEEvNT_6ParamsE'
thread block = 6,0,0
GPGPU-Sim uArch: Shader 7 bind to kernel 1 '_ZN7cutlass6KernelINS_4gemm6kernel4GemmINS1_11threadblock12MmaPipelinedINS1_9GemmShapeILi64ELi64ELi32EEENS_9transform11threadblock22PredicatedTileIteratorINS_11MatrixShapeILi64ELi32EEENS_6half_tENS_6layout8RowMajorELi1ENS8_29PitchLinearWarpRakedThreadMapINS_16PitchLinearShapeILi32ELi64EEELi128ENSH_ILi4ELi8EEELi8EEELi8ELb0ENSE_9NoPermuteEEENS9_19RegularTileIteratorISC_SD_NSE_37RowMajorTensorOpMultiplicandCrosswiseILi16ELi32EEELi0ESK_Li16EEENSA_INSB_ILi32ELi64EEESD_NSE_11ColumnMajorELi0ESK_Li8ELb0ESL_EENSN_ISR_SD_NSE_40ColumnMajorTensorOpMultiplicandCrosswiseILi16ELi32EEELi1ESK_Li16EEESD_SF_NS4_9MmaPolicyINS1_4warp11MmaTensorOpINS6_ILi32ELi32ELi32EEESD_SP_SD_SV_SD_SF_NSY_17MmaTensorOpPolicyINS_4arch3MmaINS6_ILi16ELi8ELi16EEELi32ESD_SF_SD_SS_SD_SF_NS12_13OpMultiplyAddEEENSB_ILi1ELi1EEEEELi1ELb0EbEENSB_ILi0ELi0EEES1A_Li1EEENS_21NumericArrayConverterISD_SD_Li16ELNS_15FloatRoundStyleE2ENS8_6thread14UnaryTransform8IdentityEEES1H_bEENS_8epilogue11threadblock8EpilogueIS7_S19_Li1ENS1K_22PredicatedTileIteratorINS1K_26OutputTileOptimalThreadMapINS1K_15OutputTileShapeILi64ELi8ELi2ELi1ELi1EEENS1O_ILi1ELi4ELi1ELi1ELi4EEELi128ELi8ELi16EEESD_Lb0ESL_Lb0EEENS1J_4warp24FragmentIteratorTensorOpIS10_S14_SD_NS_5ArrayISD_Li4ELb0EEESF_EENS1T_20TileIteratorTensorOpIS10_S14_SD_SF_EENS1K_18SharedLoadIteratorINS1R_18CompactedThreadMapESD_Li16EEENS1J_6thread17LinearCombinationISD_Li8ESD_SD_LNS23_9ScaleType4KindE0ELS1D_2ESD_EENSB_ILi0ELi16EEELi1ELi1EEENS4_30GemmIdentityThreadblockSwizzleILi1EEELb0EEEEEvNT_6ParamsE'
thread block = 7,0,0
GPGPU-Sim uArch: Shader 8 bind to kernel 1 '_ZN7cutlass6KernelINS_4gemm6kernel4GemmINS1_11threadblock12MmaPipelinedINS1_9GemmShapeILi64ELi64ELi32EEENS_9transform11threadblock22PredicatedTileIteratorINS_11MatrixShapeILi64ELi32EEENS_6half_tENS_6layout8RowMajorELi1ENS8_29PitchLinearWarpRakedThreadMapINS_16PitchLinearShapeILi32ELi64EEELi128ENSH_ILi4ELi8EEELi8EEELi8ELb0ENSE_9NoPermuteEEENS9_19RegularTileIteratorISC_SD_NSE_37RowMajorTensorOpMultiplicandCrosswiseILi16ELi32EEELi0ESK_Li16EEENSA_INSB_ILi32ELi64EEESD_NSE_11ColumnMajorELi0ESK_Li8ELb0ESL_EENSN_ISR_SD_NSE_40ColumnMajorTensorOpMultiplicandCrosswiseILi16ELi32EEELi1ESK_Li16EEESD_SF_NS4_9MmaPolicyINS1_4warp11MmaTensorOpINS6_ILi32ELi32ELi32EEESD_SP_SD_SV_SD_SF_NSY_17MmaTensorOpPolicyINS_4arch3MmaINS6_ILi16ELi8ELi16EEELi32ESD_SF_SD_SS_SD_SF_NS12_13OpMultiplyAddEEENSB_ILi1ELi1EEEEELi1ELb0EbEENSB_ILi0ELi0EEES1A_Li1EEENS_21NumericArrayConverterISD_SD_Li16ELNS_15FloatRoundStyleE2ENS8_6thread14UnaryTransform8IdentityEEES1H_bEENS_8epilogue11threadblock8EpilogueIS7_S19_Li1ENS1K_22PredicatedTileIteratorINS1K_26OutputTileOptimalThreadMapINS1K_15OutputTileShapeILi64ELi8ELi2ELi1ELi1EEENS1O_ILi1ELi4ELi1ELi1ELi4EEELi128ELi8ELi16EEESD_Lb0ESL_Lb0EEENS1J_4warp24FragmentIteratorTensorOpIS10_S14_SD_NS_5ArrayISD_Li4ELb0EEESF_EENS1T_20TileIteratorTensorOpIS10_S14_SD_SF_EENS1K_18SharedLoadIteratorINS1R_18CompactedThreadMapESD_Li16EEENS1J_6thread17LinearCombinationISD_Li8ESD_SD_LNS23_9ScaleType4KindE0ELS1D_2ESD_EENSB_ILi0ELi16EEELi1ELi1EEENS4_30GemmIdentityThreadblockSwizzleILi1EEELb0EEEEEvNT_6ParamsE'
thread block = 8,0,0
GPGPU-Sim uArch: Shader 9 bind to kernel 1 '_ZN7cutlass6KernelINS_4gemm6kernel4GemmINS1_11threadblock12MmaPipelinedINS1_9GemmShapeILi64ELi64ELi32EEENS_9transform11threadblock22PredicatedTileIteratorINS_11MatrixShapeILi64ELi32EEENS_6half_tENS_6layout8RowMajorELi1ENS8_29PitchLinearWarpRakedThreadMapINS_16PitchLinearShapeILi32ELi64EEELi128ENSH_ILi4ELi8EEELi8EEELi8ELb0ENSE_9NoPermuteEEENS9_19RegularTileIteratorISC_SD_NSE_37RowMajorTensorOpMultiplicandCrosswiseILi16ELi32EEELi0ESK_Li16EEENSA_INSB_ILi32ELi64EEESD_NSE_11ColumnMajorELi0ESK_Li8ELb0ESL_EENSN_ISR_SD_NSE_40ColumnMajorTensorOpMultiplicandCrosswiseILi16ELi32EEELi1ESK_Li16EEESD_SF_NS4_9MmaPolicyINS1_4warp11MmaTensorOpINS6_ILi32ELi32ELi32EEESD_SP_SD_SV_SD_SF_NSY_17MmaTensorOpPolicyINS_4arch3MmaINS6_ILi16ELi8ELi16EEELi32ESD_SF_SD_SS_SD_SF_NS12_13OpMultiplyAddEEENSB_ILi1ELi1EEEEELi1ELb0EbEENSB_ILi0ELi0EEES1A_Li1EEENS_21NumericArrayConverterISD_SD_Li16ELNS_15FloatRoundStyleE2ENS8_6thread14UnaryTransform8IdentityEEES1H_bEENS_8epilogue11threadblock8EpilogueIS7_S19_Li1ENS1K_22PredicatedTileIteratorINS1K_26OutputTileOptimalThreadMapINS1K_15OutputTileShapeILi64ELi8ELi2ELi1ELi1EEENS1O_ILi1ELi4ELi1ELi1ELi4EEELi128ELi8ELi16EEESD_Lb0ESL_Lb0EEENS1J_4warp24FragmentIteratorTensorOpIS10_S14_SD_NS_5ArrayISD_Li4ELb0EEESF_EENS1T_20TileIteratorTensorOpIS10_S14_SD_SF_EENS1K_18SharedLoadIteratorINS1R_18CompactedThreadMapESD_Li16EEENS1J_6thread17LinearCombinationISD_Li8ESD_SD_LNS23_9ScaleType4KindE0ELS1D_2ESD_EENSB_ILi0ELi16EEELi1ELi1EEENS4_30GemmIdentityThreadblockSwizzleILi1EEELb0EEEEEvNT_6ParamsE'
thread block = 9,0,0
GPGPU-Sim uArch: Shader 10 bind to kernel 1 '_ZN7cutlass6KernelINS_4gemm6kernel4GemmINS1_11threadblock12MmaPipelinedINS1_9GemmShapeILi64ELi64ELi32EEENS_9transform11threadblock22PredicatedTileIteratorINS_11MatrixShapeILi64ELi32EEENS_6half_tENS_6layout8RowMajorELi1ENS8_29PitchLinearWarpRakedThreadMapINS_16PitchLinearShapeILi32ELi64EEELi128ENSH_ILi4ELi8EEELi8EEELi8ELb0ENSE_9NoPermuteEEENS9_19RegularTileIteratorISC_SD_NSE_37RowMajorTensorOpMultiplicandCrosswiseILi16ELi32EEELi0ESK_Li16EEENSA_INSB_ILi32ELi64EEESD_NSE_11ColumnMajorELi0ESK_Li8ELb0ESL_EENSN_ISR_SD_NSE_40ColumnMajorTensorOpMultiplicandCrosswiseILi16ELi32EEELi1ESK_Li16EEESD_SF_NS4_9MmaPolicyINS1_4warp11MmaTensorOpINS6_ILi32ELi32ELi32EEESD_SP_SD_SV_SD_SF_NSY_17MmaTensorOpPolicyINS_4arch3MmaINS6_ILi16ELi8ELi16EEELi32ESD_SF_SD_SS_SD_SF_NS12_13OpMultiplyAddEEENSB_ILi1ELi1EEEEELi1ELb0EbEENSB_ILi0ELi0EEES1A_Li1EEENS_21NumericArrayConverterISD_SD_Li16ELNS_15FloatRoundStyleE2ENS8_6thread14UnaryTransform8IdentityEEES1H_bEENS_8epilogue11threadblock8EpilogueIS7_S19_Li1ENS1K_22PredicatedTileIteratorINS1K_26OutputTileOptimalThreadMapINS1K_15OutputTileShapeILi64ELi8ELi2ELi1ELi1EEENS1O_ILi1ELi4ELi1ELi1ELi4EEELi128ELi8ELi16EEESD_Lb0ESL_Lb0EEENS1J_4warp24FragmentIteratorTensorOpIS10_S14_SD_NS_5ArrayISD_Li4ELb0EEESF_EENS1T_20TileIteratorTensorOpIS10_S14_SD_SF_EENS1K_18SharedLoadIteratorINS1R_18CompactedThreadMapESD_Li16EEENS1J_6thread17LinearCombinationISD_Li8ESD_SD_LNS23_9ScaleType4KindE0ELS1D_2ESD_EENSB_ILi0ELi16EEELi1ELi1EEENS4_30GemmIdentityThreadblockSwizzleILi1EEELb0EEEEEvNT_6ParamsE'
thread block = 10,0,0
GPGPU-Sim uArch: Shader 11 bind to kernel 1 '_ZN7cutlass6KernelINS_4gemm6kernel4GemmINS1_11threadblock12MmaPipelinedINS1_9GemmShapeILi64ELi64ELi32EEENS_9transform11threadblock22PredicatedTileIteratorINS_11MatrixShapeILi64ELi32EEENS_6half_tENS_6layout8RowMajorELi1ENS8_29PitchLinearWarpRakedThreadMapINS_16PitchLinearShapeILi32ELi64EEELi128ENSH_ILi4ELi8EEELi8EEELi8ELb0ENSE_9NoPermuteEEENS9_19RegularTileIteratorISC_SD_NSE_37RowMajorTensorOpMultiplicandCrosswiseILi16ELi32EEELi0ESK_Li16EEENSA_INSB_ILi32ELi64EEESD_NSE_11ColumnMajorELi0ESK_Li8ELb0ESL_EENSN_ISR_SD_NSE_40ColumnMajorTensorOpMultiplicandCrosswiseILi16ELi32EEELi1ESK_Li16EEESD_SF_NS4_9MmaPolicyINS1_4warp11MmaTensorOpINS6_ILi32ELi32ELi32EEESD_SP_SD_SV_SD_SF_NSY_17MmaTensorOpPolicyINS_4arch3MmaINS6_ILi16ELi8ELi16EEELi32ESD_SF_SD_SS_SD_SF_NS12_13OpMultiplyAddEEENSB_ILi1ELi1EEEEELi1ELb0EbEENSB_ILi0ELi0EEES1A_Li1EEENS_21NumericArrayConverterISD_SD_Li16ELNS_15FloatRoundStyleE2ENS8_6thread14UnaryTransform8IdentityEEES1H_bEENS_8epilogue11threadblock8EpilogueIS7_S19_Li1ENS1K_22PredicatedTileIteratorINS1K_26OutputTileOptimalThreadMapINS1K_15OutputTileShapeILi64ELi8ELi2ELi1ELi1EEENS1O_ILi1ELi4ELi1ELi1ELi4EEELi128ELi8ELi16EEESD_Lb0ESL_Lb0EEENS1J_4warp24FragmentIteratorTensorOpIS10_S14_SD_NS_5ArrayISD_Li4ELb0EEESF_EENS1T_20TileIteratorTensorOpIS10_S14_SD_SF_EENS1K_18SharedLoadIteratorINS1R_18CompactedThreadMapESD_Li16EEENS1J_6thread17LinearCombinationISD_Li8ESD_SD_LNS23_9ScaleType4KindE0ELS1D_2ESD_EENSB_ILi0ELi16EEELi1ELi1EEENS4_30GemmIdentityThreadblockSwizzleILi1EEELb0EEEEEvNT_6ParamsE'
thread block = 11,0,0
GPGPU-Sim uArch: Shader 12 bind to kernel 1 '_ZN7cutlass6KernelINS_4gemm6kernel4GemmINS1_11threadblock12MmaPipelinedINS1_9GemmShapeILi64ELi64ELi32EEENS_9transform11threadblock22PredicatedTileIteratorINS_11MatrixShapeILi64ELi32EEENS_6half_tENS_6layout8RowMajorELi1ENS8_29PitchLinearWarpRakedThreadMapINS_16PitchLinearShapeILi32ELi64EEELi128ENSH_ILi4ELi8EEELi8EEELi8ELb0ENSE_9NoPermuteEEENS9_19RegularTileIteratorISC_SD_NSE_37RowMajorTensorOpMultiplicandCrosswiseILi16ELi32EEELi0ESK_Li16EEENSA_INSB_ILi32ELi64EEESD_NSE_11ColumnMajorELi0ESK_Li8ELb0ESL_EENSN_ISR_SD_NSE_40ColumnMajorTensorOpMultiplicandCrosswiseILi16ELi32EEELi1ESK_Li16EEESD_SF_NS4_9MmaPolicyINS1_4warp11MmaTensorOpINS6_ILi32ELi32ELi32EEESD_SP_SD_SV_SD_SF_NSY_17MmaTensorOpPolicyINS_4arch3MmaINS6_ILi16ELi8ELi16EEELi32ESD_SF_SD_SS_SD_SF_NS12_13OpMultiplyAddEEENSB_ILi1ELi1EEEEELi1ELb0EbEENSB_ILi0ELi0EEES1A_Li1EEENS_21NumericArrayConverterISD_SD_Li16ELNS_15FloatRoundStyleE2ENS8_6thread14UnaryTransform8IdentityEEES1H_bEENS_8epilogue11threadblock8EpilogueIS7_S19_Li1ENS1K_22PredicatedTileIteratorINS1K_26OutputTileOptimalThreadMapINS1K_15OutputTileShapeILi64ELi8ELi2ELi1ELi1EEENS1O_ILi1ELi4ELi1ELi1ELi4EEELi128ELi8ELi16EEESD_Lb0ESL_Lb0EEENS1J_4warp24FragmentIteratorTensorOpIS10_S14_SD_NS_5ArrayISD_Li4ELb0EEESF_EENS1T_20TileIteratorTensorOpIS10_S14_SD_SF_EENS1K_18SharedLoadIteratorINS1R_18CompactedThreadMapESD_Li16EEENS1J_6thread17LinearCombinationISD_Li8ESD_SD_LNS23_9ScaleType4KindE0ELS1D_2ESD_EENSB_ILi0ELi16EEELi1ELi1EEENS4_30GemmIdentityThreadblockSwizzleILi1EEELb0EEEEEvNT_6ParamsE'
thread block = 12,0,0
GPGPU-Sim uArch: Shader 13 bind to kernel 1 '_ZN7cutlass6KernelINS_4gemm6kernel4GemmINS1_11threadblock12MmaPipelinedINS1_9GemmShapeILi64ELi64ELi32EEENS_9transform11threadblock22PredicatedTileIteratorINS_11MatrixShapeILi64ELi32EEENS_6half_tENS_6layout8RowMajorELi1ENS8_29PitchLinearWarpRakedThreadMapINS_16PitchLinearShapeILi32ELi64EEELi128ENSH_ILi4ELi8EEELi8EEELi8ELb0ENSE_9NoPermuteEEENS9_19RegularTileIteratorISC_SD_NSE_37RowMajorTensorOpMultiplicandCrosswiseILi16ELi32EEELi0ESK_Li16EEENSA_INSB_ILi32ELi64EEESD_NSE_11ColumnMajorELi0ESK_Li8ELb0ESL_EENSN_ISR_SD_NSE_40ColumnMajorTensorOpMultiplicandCrosswiseILi16ELi32EEELi1ESK_Li16EEESD_SF_NS4_9MmaPolicyINS1_4warp11MmaTensorOpINS6_ILi32ELi32ELi32EEESD_SP_SD_SV_SD_SF_NSY_17MmaTensorOpPolicyINS_4arch3MmaINS6_ILi16ELi8ELi16EEELi32ESD_SF_SD_SS_SD_SF_NS12_13OpMultiplyAddEEENSB_ILi1ELi1EEEEELi1ELb0EbEENSB_ILi0ELi0EEES1A_Li1EEENS_21NumericArrayConverterISD_SD_Li16ELNS_15FloatRoundStyleE2ENS8_6thread14UnaryTransform8IdentityEEES1H_bEENS_8epilogue11threadblock8EpilogueIS7_S19_Li1ENS1K_22PredicatedTileIteratorINS1K_26OutputTileOptimalThreadMapINS1K_15OutputTileShapeILi64ELi8ELi2ELi1ELi1EEENS1O_ILi1ELi4ELi1ELi1ELi4EEELi128ELi8ELi16EEESD_Lb0ESL_Lb0EEENS1J_4warp24FragmentIteratorTensorOpIS10_S14_SD_NS_5ArrayISD_Li4ELb0EEESF_EENS1T_20TileIteratorTensorOpIS10_S14_SD_SF_EENS1K_18SharedLoadIteratorINS1R_18CompactedThreadMapESD_Li16EEENS1J_6thread17LinearCombinationISD_Li8ESD_SD_LNS23_9ScaleType4KindE0ELS1D_2ESD_EENSB_ILi0ELi16EEELi1ELi1EEENS4_30GemmIdentityThreadblockSwizzleILi1EEELb0EEEEEvNT_6ParamsE'
thread block = 13,0,0
GPGPU-Sim uArch: Shader 14 bind to kernel 1 '_ZN7cutlass6KernelINS_4gemm6kernel4GemmINS1_11threadblock12MmaPipelinedINS1_9GemmShapeILi64ELi64ELi32EEENS_9transform11threadblock22PredicatedTileIteratorINS_11MatrixShapeILi64ELi32EEENS_6half_tENS_6layout8RowMajorELi1ENS8_29PitchLinearWarpRakedThreadMapINS_16PitchLinearShapeILi32ELi64EEELi128ENSH_ILi4ELi8EEELi8EEELi8ELb0ENSE_9NoPermuteEEENS9_19RegularTileIteratorISC_SD_NSE_37RowMajorTensorOpMultiplicandCrosswiseILi16ELi32EEELi0ESK_Li16EEENSA_INSB_ILi32ELi64EEESD_NSE_11ColumnMajorELi0ESK_Li8ELb0ESL_EENSN_ISR_SD_NSE_40ColumnMajorTensorOpMultiplicandCrosswiseILi16ELi32EEELi1ESK_Li16EEESD_SF_NS4_9MmaPolicyINS1_4warp11MmaTensorOpINS6_ILi32ELi32ELi32EEESD_SP_SD_SV_SD_SF_NSY_17MmaTensorOpPolicyINS_4arch3MmaINS6_ILi16ELi8ELi16EEELi32ESD_SF_SD_SS_SD_SF_NS12_13OpMultiplyAddEEENSB_ILi1ELi1EEEEELi1ELb0EbEENSB_ILi0ELi0EEES1A_Li1EEENS_21NumericArrayConverterISD_SD_Li16ELNS_15FloatRoundStyleE2ENS8_6thread14UnaryTransform8IdentityEEES1H_bEENS_8epilogue11threadblock8EpilogueIS7_S19_Li1ENS1K_22PredicatedTileIteratorINS1K_26OutputTileOptimalThreadMapINS1K_15OutputTileShapeILi64ELi8ELi2ELi1ELi1EEENS1O_ILi1ELi4ELi1ELi1ELi4EEELi128ELi8ELi16EEESD_Lb0ESL_Lb0EEENS1J_4warp24FragmentIteratorTensorOpIS10_S14_SD_NS_5ArrayISD_Li4ELb0EEESF_EENS1T_20TileIteratorTensorOpIS10_S14_SD_SF_EENS1K_18SharedLoadIteratorINS1R_18CompactedThreadMapESD_Li16EEENS1J_6thread17LinearCombinationISD_Li8ESD_SD_LNS23_9ScaleType4KindE0ELS1D_2ESD_EENSB_ILi0ELi16EEELi1ELi1EEENS4_30GemmIdentityThreadblockSwizzleILi1EEELb0EEEEEvNT_6ParamsE'
thread block = 14,0,0
GPGPU-Sim uArch: Shader 15 bind to kernel 1 '_ZN7cutlass6KernelINS_4gemm6kernel4GemmINS1_11threadblock12MmaPipelinedINS1_9GemmShapeILi64ELi64ELi32EEENS_9transform11threadblock22PredicatedTileIteratorINS_11MatrixShapeILi64ELi32EEENS_6half_tENS_6layout8RowMajorELi1ENS8_29PitchLinearWarpRakedThreadMapINS_16PitchLinearShapeILi32ELi64EEELi128ENSH_ILi4ELi8EEELi8EEELi8ELb0ENSE_9NoPermuteEEENS9_19RegularTileIteratorISC_SD_NSE_37RowMajorTensorOpMultiplicandCrosswiseILi16ELi32EEELi0ESK_Li16EEENSA_INSB_ILi32ELi64EEESD_NSE_11ColumnMajorELi0ESK_Li8ELb0ESL_EENSN_ISR_SD_NSE_40ColumnMajorTensorOpMultiplicandCrosswiseILi16ELi32EEELi1ESK_Li16EEESD_SF_NS4_9MmaPolicyINS1_4warp11MmaTensorOpINS6_ILi32ELi32ELi32EEESD_SP_SD_SV_SD_SF_NSY_17MmaTensorOpPolicyINS_4arch3MmaINS6_ILi16ELi8ELi16EEELi32ESD_SF_SD_SS_SD_SF_NS12_13OpMultiplyAddEEENSB_ILi1ELi1EEEEELi1ELb0EbEENSB_ILi0ELi0EEES1A_Li1EEENS_21NumericArrayConverterISD_SD_Li16ELNS_15FloatRoundStyleE2ENS8_6thread14UnaryTransform8IdentityEEES1H_bEENS_8epilogue11threadblock8EpilogueIS7_S19_Li1ENS1K_22PredicatedTileIteratorINS1K_26OutputTileOptimalThreadMapINS1K_15OutputTileShapeILi64ELi8ELi2ELi1ELi1EEENS1O_ILi1ELi4ELi1ELi1ELi4EEELi128ELi8ELi16EEESD_Lb0ESL_Lb0EEENS1J_4warp24FragmentIteratorTensorOpIS10_S14_SD_NS_5ArrayISD_Li4ELb0EEESF_EENS1T_20TileIteratorTensorOpIS10_S14_SD_SF_EENS1K_18SharedLoadIteratorINS1R_18CompactedThreadMapESD_Li16EEENS1J_6thread17LinearCombinationISD_Li8ESD_SD_LNS23_9ScaleType4KindE0ELS1D_2ESD_EENSB_ILi0ELi16EEELi1ELi1EEENS4_30GemmIdentityThreadblockSwizzleILi1EEELb0EEEEEvNT_6ParamsE'
thread block = 15,0,0
GPGPU-Sim uArch: Shader 16 bind to kernel 1 '_ZN7cutlass6KernelINS_4gemm6kernel4GemmINS1_11threadblock12MmaPipelinedINS1_9GemmShapeILi64ELi64ELi32EEENS_9transform11threadblock22PredicatedTileIteratorINS_11MatrixShapeILi64ELi32EEENS_6half_tENS_6layout8RowMajorELi1ENS8_29PitchLinearWarpRakedThreadMapINS_16PitchLinearShapeILi32ELi64EEELi128ENSH_ILi4ELi8EEELi8EEELi8ELb0ENSE_9NoPermuteEEENS9_19RegularTileIteratorISC_SD_NSE_37RowMajorTensorOpMultiplicandCrosswiseILi16ELi32EEELi0ESK_Li16EEENSA_INSB_ILi32ELi64EEESD_NSE_11ColumnMajorELi0ESK_Li8ELb0ESL_EENSN_ISR_SD_NSE_40ColumnMajorTensorOpMultiplicandCrosswiseILi16ELi32EEELi1ESK_Li16EEESD_SF_NS4_9MmaPolicyINS1_4warp11MmaTensorOpINS6_ILi32ELi32ELi32EEESD_SP_SD_SV_SD_SF_NSY_17MmaTensorOpPolicyINS_4arch3MmaINS6_ILi16ELi8ELi16EEELi32ESD_SF_SD_SS_SD_SF_NS12_13OpMultiplyAddEEENSB_ILi1ELi1EEEEELi1ELb0EbEENSB_ILi0ELi0EEES1A_Li1EEENS_21NumericArrayConverterISD_SD_Li16ELNS_15FloatRoundStyleE2ENS8_6thread14UnaryTransform8IdentityEEES1H_bEENS_8epilogue11threadblock8EpilogueIS7_S19_Li1ENS1K_22PredicatedTileIteratorINS1K_26OutputTileOptimalThreadMapINS1K_15OutputTileShapeILi64ELi8ELi2ELi1ELi1EEENS1O_ILi1ELi4ELi1ELi1ELi4EEELi128ELi8ELi16EEESD_Lb0ESL_Lb0EEENS1J_4warp24FragmentIteratorTensorOpIS10_S14_SD_NS_5ArrayISD_Li4ELb0EEESF_EENS1T_20TileIteratorTensorOpIS10_S14_SD_SF_EENS1K_18SharedLoadIteratorINS1R_18CompactedThreadMapESD_Li16EEENS1J_6thread17LinearCombinationISD_Li8ESD_SD_LNS23_9ScaleType4KindE0ELS1D_2ESD_EENSB_ILi0ELi16EEELi1ELi1EEENS4_30GemmIdentityThreadblockSwizzleILi1EEELb0EEEEEvNT_6ParamsE'
thread block = 16,0,0
GPGPU-Sim uArch: Shader 17 bind to kernel 1 '_ZN7cutlass6KernelINS_4gemm6kernel4GemmINS1_11threadblock12MmaPipelinedINS1_9GemmShapeILi64ELi64ELi32EEENS_9transform11threadblock22PredicatedTileIteratorINS_11MatrixShapeILi64ELi32EEENS_6half_tENS_6layout8RowMajorELi1ENS8_29PitchLinearWarpRakedThreadMapINS_16PitchLinearShapeILi32ELi64EEELi128ENSH_ILi4ELi8EEELi8EEELi8ELb0ENSE_9NoPermuteEEENS9_19RegularTileIteratorISC_SD_NSE_37RowMajorTensorOpMultiplicandCrosswiseILi16ELi32EEELi0ESK_Li16EEENSA_INSB_ILi32ELi64EEESD_NSE_11ColumnMajorELi0ESK_Li8ELb0ESL_EENSN_ISR_SD_NSE_40ColumnMajorTensorOpMultiplicandCrosswiseILi16ELi32EEELi1ESK_Li16EEESD_SF_NS4_9MmaPolicyINS1_4warp11MmaTensorOpINS6_ILi32ELi32ELi32EEESD_SP_SD_SV_SD_SF_NSY_17MmaTensorOpPolicyINS_4arch3MmaINS6_ILi16ELi8ELi16EEELi32ESD_SF_SD_SS_SD_SF_NS12_13OpMultiplyAddEEENSB_ILi1ELi1EEEEELi1ELb0EbEENSB_ILi0ELi0EEES1A_Li1EEENS_21NumericArrayConverterISD_SD_Li16ELNS_15FloatRoundStyleE2ENS8_6thread14UnaryTransform8IdentityEEES1H_bEENS_8epilogue11threadblock8EpilogueIS7_S19_Li1ENS1K_22PredicatedTileIteratorINS1K_26OutputTileOptimalThreadMapINS1K_15OutputTileShapeILi64ELi8ELi2ELi1ELi1EEENS1O_ILi1ELi4ELi1ELi1ELi4EEELi128ELi8ELi16EEESD_Lb0ESL_Lb0EEENS1J_4warp24FragmentIteratorTensorOpIS10_S14_SD_NS_5ArrayISD_Li4ELb0EEESF_EENS1T_20TileIteratorTensorOpIS10_S14_SD_SF_EENS1K_18SharedLoadIteratorINS1R_18CompactedThreadMapESD_Li16EEENS1J_6thread17LinearCombinationISD_Li8ESD_SD_LNS23_9ScaleType4KindE0ELS1D_2ESD_EENSB_ILi0ELi16EEELi1ELi1EEENS4_30GemmIdentityThreadblockSwizzleILi1EEELb0EEEEEvNT_6ParamsE'
thread block = 17,0,0
GPGPU-Sim uArch: Shader 18 bind to kernel 1 '_ZN7cutlass6KernelINS_4gemm6kernel4GemmINS1_11threadblock12MmaPipelinedINS1_9GemmShapeILi64ELi64ELi32EEENS_9transform11threadblock22PredicatedTileIteratorINS_11MatrixShapeILi64ELi32EEENS_6half_tENS_6layout8RowMajorELi1ENS8_29PitchLinearWarpRakedThreadMapINS_16PitchLinearShapeILi32ELi64EEELi128ENSH_ILi4ELi8EEELi8EEELi8ELb0ENSE_9NoPermuteEEENS9_19RegularTileIteratorISC_SD_NSE_37RowMajorTensorOpMultiplicandCrosswiseILi16ELi32EEELi0ESK_Li16EEENSA_INSB_ILi32ELi64EEESD_NSE_11ColumnMajorELi0ESK_Li8ELb0ESL_EENSN_ISR_SD_NSE_40ColumnMajorTensorOpMultiplicandCrosswiseILi16ELi32EEELi1ESK_Li16EEESD_SF_NS4_9MmaPolicyINS1_4warp11MmaTensorOpINS6_ILi32ELi32ELi32EEESD_SP_SD_SV_SD_SF_NSY_17MmaTensorOpPolicyINS_4arch3MmaINS6_ILi16ELi8ELi16EEELi32ESD_SF_SD_SS_SD_SF_NS12_13OpMultiplyAddEEENSB_ILi1ELi1EEEEELi1ELb0EbEENSB_ILi0ELi0EEES1A_Li1EEENS_21NumericArrayConverterISD_SD_Li16ELNS_15FloatRoundStyleE2ENS8_6thread14UnaryTransform8IdentityEEES1H_bEENS_8epilogue11threadblock8EpilogueIS7_S19_Li1ENS1K_22PredicatedTileIteratorINS1K_26OutputTileOptimalThreadMapINS1K_15OutputTileShapeILi64ELi8ELi2ELi1ELi1EEENS1O_ILi1ELi4ELi1ELi1ELi4EEELi128ELi8ELi16EEESD_Lb0ESL_Lb0EEENS1J_4warp24FragmentIteratorTensorOpIS10_S14_SD_NS_5ArrayISD_Li4ELb0EEESF_EENS1T_20TileIteratorTensorOpIS10_S14_SD_SF_EENS1K_18SharedLoadIteratorINS1R_18CompactedThreadMapESD_Li16EEENS1J_6thread17LinearCombinationISD_Li8ESD_SD_LNS23_9ScaleType4KindE0ELS1D_2ESD_EENSB_ILi0ELi16EEELi1ELi1EEENS4_30GemmIdentityThreadblockSwizzleILi1EEELb0EEEEEvNT_6ParamsE'
thread block = 18,0,0
GPGPU-Sim uArch: Shader 19 bind to kernel 1 '_ZN7cutlass6KernelINS_4gemm6kernel4GemmINS1_11threadblock12MmaPipelinedINS1_9GemmShapeILi64ELi64ELi32EEENS_9transform11threadblock22PredicatedTileIteratorINS_11MatrixShapeILi64ELi32EEENS_6half_tENS_6layout8RowMajorELi1ENS8_29PitchLinearWarpRakedThreadMapINS_16PitchLinearShapeILi32ELi64EEELi128ENSH_ILi4ELi8EEELi8EEELi8ELb0ENSE_9NoPermuteEEENS9_19RegularTileIteratorISC_SD_NSE_37RowMajorTensorOpMultiplicandCrosswiseILi16ELi32EEELi0ESK_Li16EEENSA_INSB_ILi32ELi64EEESD_NSE_11ColumnMajorELi0ESK_Li8ELb0ESL_EENSN_ISR_SD_NSE_40ColumnMajorTensorOpMultiplicandCrosswiseILi16ELi32EEELi1ESK_Li16EEESD_SF_NS4_9MmaPolicyINS1_4warp11MmaTensorOpINS6_ILi32ELi32ELi32EEESD_SP_SD_SV_SD_SF_NSY_17MmaTensorOpPolicyINS_4arch3MmaINS6_ILi16ELi8ELi16EEELi32ESD_SF_SD_SS_SD_SF_NS12_13OpMultiplyAddEEENSB_ILi1ELi1EEEEELi1ELb0EbEENSB_ILi0ELi0EEES1A_Li1EEENS_21NumericArrayConverterISD_SD_Li16ELNS_15FloatRoundStyleE2ENS8_6thread14UnaryTransform8IdentityEEES1H_bEENS_8epilogue11threadblock8EpilogueIS7_S19_Li1ENS1K_22PredicatedTileIteratorINS1K_26OutputTileOptimalThreadMapINS1K_15OutputTileShapeILi64ELi8ELi2ELi1ELi1EEENS1O_ILi1ELi4ELi1ELi1ELi4EEELi128ELi8ELi16EEESD_Lb0ESL_Lb0EEENS1J_4warp24FragmentIteratorTensorOpIS10_S14_SD_NS_5ArrayISD_Li4ELb0EEESF_EENS1T_20TileIteratorTensorOpIS10_S14_SD_SF_EENS1K_18SharedLoadIteratorINS1R_18CompactedThreadMapESD_Li16EEENS1J_6thread17LinearCombinationISD_Li8ESD_SD_LNS23_9ScaleType4KindE0ELS1D_2ESD_EENSB_ILi0ELi16EEELi1ELi1EEENS4_30GemmIdentityThreadblockSwizzleILi1EEELb0EEEEEvNT_6ParamsE'
thread block = 19,0,0
GPGPU-Sim uArch: Shader 20 bind to kernel 1 '_ZN7cutlass6KernelINS_4gemm6kernel4GemmINS1_11threadblock12MmaPipelinedINS1_9GemmShapeILi64ELi64ELi32EEENS_9transform11threadblock22PredicatedTileIteratorINS_11MatrixShapeILi64ELi32EEENS_6half_tENS_6layout8RowMajorELi1ENS8_29PitchLinearWarpRakedThreadMapINS_16PitchLinearShapeILi32ELi64EEELi128ENSH_ILi4ELi8EEELi8EEELi8ELb0ENSE_9NoPermuteEEENS9_19RegularTileIteratorISC_SD_NSE_37RowMajorTensorOpMultiplicandCrosswiseILi16ELi32EEELi0ESK_Li16EEENSA_INSB_ILi32ELi64EEESD_NSE_11ColumnMajorELi0ESK_Li8ELb0ESL_EENSN_ISR_SD_NSE_40ColumnMajorTensorOpMultiplicandCrosswiseILi16ELi32EEELi1ESK_Li16EEESD_SF_NS4_9MmaPolicyINS1_4warp11MmaTensorOpINS6_ILi32ELi32ELi32EEESD_SP_SD_SV_SD_SF_NSY_17MmaTensorOpPolicyINS_4arch3MmaINS6_ILi16ELi8ELi16EEELi32ESD_SF_SD_SS_SD_SF_NS12_13OpMultiplyAddEEENSB_ILi1ELi1EEEEELi1ELb0EbEENSB_ILi0ELi0EEES1A_Li1EEENS_21NumericArrayConverterISD_SD_Li16ELNS_15FloatRoundStyleE2ENS8_6thread14UnaryTransform8IdentityEEES1H_bEENS_8epilogue11threadblock8EpilogueIS7_S19_Li1ENS1K_22PredicatedTileIteratorINS1K_26OutputTileOptimalThreadMapINS1K_15OutputTileShapeILi64ELi8ELi2ELi1ELi1EEENS1O_ILi1ELi4ELi1ELi1ELi4EEELi128ELi8ELi16EEESD_Lb0ESL_Lb0EEENS1J_4warp24FragmentIteratorTensorOpIS10_S14_SD_NS_5ArrayISD_Li4ELb0EEESF_EENS1T_20TileIteratorTensorOpIS10_S14_SD_SF_EENS1K_18SharedLoadIteratorINS1R_18CompactedThreadMapESD_Li16EEENS1J_6thread17LinearCombinationISD_Li8ESD_SD_LNS23_9ScaleType4KindE0ELS1D_2ESD_EENSB_ILi0ELi16EEELi1ELi1EEENS4_30GemmIdentityThreadblockSwizzleILi1EEELb0EEEEEvNT_6ParamsE'
thread block = 20,0,0
GPGPU-Sim uArch: Shader 21 bind to kernel 1 '_ZN7cutlass6KernelINS_4gemm6kernel4GemmINS1_11threadblock12MmaPipelinedINS1_9GemmShapeILi64ELi64ELi32EEENS_9transform11threadblock22PredicatedTileIteratorINS_11MatrixShapeILi64ELi32EEENS_6half_tENS_6layout8RowMajorELi1ENS8_29PitchLinearWarpRakedThreadMapINS_16PitchLinearShapeILi32ELi64EEELi128ENSH_ILi4ELi8EEELi8EEELi8ELb0ENSE_9NoPermuteEEENS9_19RegularTileIteratorISC_SD_NSE_37RowMajorTensorOpMultiplicandCrosswiseILi16ELi32EEELi0ESK_Li16EEENSA_INSB_ILi32ELi64EEESD_NSE_11ColumnMajorELi0ESK_Li8ELb0ESL_EENSN_ISR_SD_NSE_40ColumnMajorTensorOpMultiplicandCrosswiseILi16ELi32EEELi1ESK_Li16EEESD_SF_NS4_9MmaPolicyINS1_4warp11MmaTensorOpINS6_ILi32ELi32ELi32EEESD_SP_SD_SV_SD_SF_NSY_17MmaTensorOpPolicyINS_4arch3MmaINS6_ILi16ELi8ELi16EEELi32ESD_SF_SD_SS_SD_SF_NS12_13OpMultiplyAddEEENSB_ILi1ELi1EEEEELi1ELb0EbEENSB_ILi0ELi0EEES1A_Li1EEENS_21NumericArrayConverterISD_SD_Li16ELNS_15FloatRoundStyleE2ENS8_6thread14UnaryTransform8IdentityEEES1H_bEENS_8epilogue11threadblock8EpilogueIS7_S19_Li1ENS1K_22PredicatedTileIteratorINS1K_26OutputTileOptimalThreadMapINS1K_15OutputTileShapeILi64ELi8ELi2ELi1ELi1EEENS1O_ILi1ELi4ELi1ELi1ELi4EEELi128ELi8ELi16EEESD_Lb0ESL_Lb0EEENS1J_4warp24FragmentIteratorTensorOpIS10_S14_SD_NS_5ArrayISD_Li4ELb0EEESF_EENS1T_20TileIteratorTensorOpIS10_S14_SD_SF_EENS1K_18SharedLoadIteratorINS1R_18CompactedThreadMapESD_Li16EEENS1J_6thread17LinearCombinationISD_Li8ESD_SD_LNS23_9ScaleType4KindE0ELS1D_2ESD_EENSB_ILi0ELi16EEELi1ELi1EEENS4_30GemmIdentityThreadblockSwizzleILi1EEELb0EEEEEvNT_6ParamsE'
thread block = 21,0,0
GPGPU-Sim uArch: Shader 22 bind to kernel 1 '_ZN7cutlass6KernelINS_4gemm6kernel4GemmINS1_11threadblock12MmaPipelinedINS1_9GemmShapeILi64ELi64ELi32EEENS_9transform11threadblock22PredicatedTileIteratorINS_11MatrixShapeILi64ELi32EEENS_6half_tENS_6layout8RowMajorELi1ENS8_29PitchLinearWarpRakedThreadMapINS_16PitchLinearShapeILi32ELi64EEELi128ENSH_ILi4ELi8EEELi8EEELi8ELb0ENSE_9NoPermuteEEENS9_19RegularTileIteratorISC_SD_NSE_37RowMajorTensorOpMultiplicandCrosswiseILi16ELi32EEELi0ESK_Li16EEENSA_INSB_ILi32ELi64EEESD_NSE_11ColumnMajorELi0ESK_Li8ELb0ESL_EENSN_ISR_SD_NSE_40ColumnMajorTensorOpMultiplicandCrosswiseILi16ELi32EEELi1ESK_Li16EEESD_SF_NS4_9MmaPolicyINS1_4warp11MmaTensorOpINS6_ILi32ELi32ELi32EEESD_SP_SD_SV_SD_SF_NSY_17MmaTensorOpPolicyINS_4arch3MmaINS6_ILi16ELi8ELi16EEELi32ESD_SF_SD_SS_SD_SF_NS12_13OpMultiplyAddEEENSB_ILi1ELi1EEEEELi1ELb0EbEENSB_ILi0ELi0EEES1A_Li1EEENS_21NumericArrayConverterISD_SD_Li16ELNS_15FloatRoundStyleE2ENS8_6thread14UnaryTransform8IdentityEEES1H_bEENS_8epilogue11threadblock8EpilogueIS7_S19_Li1ENS1K_22PredicatedTileIteratorINS1K_26OutputTileOptimalThreadMapINS1K_15OutputTileShapeILi64ELi8ELi2ELi1ELi1EEENS1O_ILi1ELi4ELi1ELi1ELi4EEELi128ELi8ELi16EEESD_Lb0ESL_Lb0EEENS1J_4warp24FragmentIteratorTensorOpIS10_S14_SD_NS_5ArrayISD_Li4ELb0EEESF_EENS1T_20TileIteratorTensorOpIS10_S14_SD_SF_EENS1K_18SharedLoadIteratorINS1R_18CompactedThreadMapESD_Li16EEENS1J_6thread17LinearCombinationISD_Li8ESD_SD_LNS23_9ScaleType4KindE0ELS1D_2ESD_EENSB_ILi0ELi16EEELi1ELi1EEENS4_30GemmIdentityThreadblockSwizzleILi1EEELb0EEEEEvNT_6ParamsE'
thread block = 22,0,0
GPGPU-Sim uArch: Shader 23 bind to kernel 1 '_ZN7cutlass6KernelINS_4gemm6kernel4GemmINS1_11threadblock12MmaPipelinedINS1_9GemmShapeILi64ELi64ELi32EEENS_9transform11threadblock22PredicatedTileIteratorINS_11MatrixShapeILi64ELi32EEENS_6half_tENS_6layout8RowMajorELi1ENS8_29PitchLinearWarpRakedThreadMapINS_16PitchLinearShapeILi32ELi64EEELi128ENSH_ILi4ELi8EEELi8EEELi8ELb0ENSE_9NoPermuteEEENS9_19RegularTileIteratorISC_SD_NSE_37RowMajorTensorOpMultiplicandCrosswiseILi16ELi32EEELi0ESK_Li16EEENSA_INSB_ILi32ELi64EEESD_NSE_11ColumnMajorELi0ESK_Li8ELb0ESL_EENSN_ISR_SD_NSE_40ColumnMajorTensorOpMultiplicandCrosswiseILi16ELi32EEELi1ESK_Li16EEESD_SF_NS4_9MmaPolicyINS1_4warp11MmaTensorOpINS6_ILi32ELi32ELi32EEESD_SP_SD_SV_SD_SF_NSY_17MmaTensorOpPolicyINS_4arch3MmaINS6_ILi16ELi8ELi16EEELi32ESD_SF_SD_SS_SD_SF_NS12_13OpMultiplyAddEEENSB_ILi1ELi1EEEEELi1ELb0EbEENSB_ILi0ELi0EEES1A_Li1EEENS_21NumericArrayConverterISD_SD_Li16ELNS_15FloatRoundStyleE2ENS8_6thread14UnaryTransform8IdentityEEES1H_bEENS_8epilogue11threadblock8EpilogueIS7_S19_Li1ENS1K_22PredicatedTileIteratorINS1K_26OutputTileOptimalThreadMapINS1K_15OutputTileShapeILi64ELi8ELi2ELi1ELi1EEENS1O_ILi1ELi4ELi1ELi1ELi4EEELi128ELi8ELi16EEESD_Lb0ESL_Lb0EEENS1J_4warp24FragmentIteratorTensorOpIS10_S14_SD_NS_5ArrayISD_Li4ELb0EEESF_EENS1T_20TileIteratorTensorOpIS10_S14_SD_SF_EENS1K_18SharedLoadIteratorINS1R_18CompactedThreadMapESD_Li16EEENS1J_6thread17LinearCombinationISD_Li8ESD_SD_LNS23_9ScaleType4KindE0ELS1D_2ESD_EENSB_ILi0ELi16EEELi1ELi1EEENS4_30GemmIdentityThreadblockSwizzleILi1EEELb0EEEEEvNT_6ParamsE'
thread block = 23,0,0
GPGPU-Sim uArch: Shader 24 bind to kernel 1 '_ZN7cutlass6KernelINS_4gemm6kernel4GemmINS1_11threadblock12MmaPipelinedINS1_9GemmShapeILi64ELi64ELi32EEENS_9transform11threadblock22PredicatedTileIteratorINS_11MatrixShapeILi64ELi32EEENS_6half_tENS_6layout8RowMajorELi1ENS8_29PitchLinearWarpRakedThreadMapINS_16PitchLinearShapeILi32ELi64EEELi128ENSH_ILi4ELi8EEELi8EEELi8ELb0ENSE_9NoPermuteEEENS9_19RegularTileIteratorISC_SD_NSE_37RowMajorTensorOpMultiplicandCrosswiseILi16ELi32EEELi0ESK_Li16EEENSA_INSB_ILi32ELi64EEESD_NSE_11ColumnMajorELi0ESK_Li8ELb0ESL_EENSN_ISR_SD_NSE_40ColumnMajorTensorOpMultiplicandCrosswiseILi16ELi32EEELi1ESK_Li16EEESD_SF_NS4_9MmaPolicyINS1_4warp11MmaTensorOpINS6_ILi32ELi32ELi32EEESD_SP_SD_SV_SD_SF_NSY_17MmaTensorOpPolicyINS_4arch3MmaINS6_ILi16ELi8ELi16EEELi32ESD_SF_SD_SS_SD_SF_NS12_13OpMultiplyAddEEENSB_ILi1ELi1EEEEELi1ELb0EbEENSB_ILi0ELi0EEES1A_Li1EEENS_21NumericArrayConverterISD_SD_Li16ELNS_15FloatRoundStyleE2ENS8_6thread14UnaryTransform8IdentityEEES1H_bEENS_8epilogue11threadblock8EpilogueIS7_S19_Li1ENS1K_22PredicatedTileIteratorINS1K_26OutputTileOptimalThreadMapINS1K_15OutputTileShapeILi64ELi8ELi2ELi1ELi1EEENS1O_ILi1ELi4ELi1ELi1ELi4EEELi128ELi8ELi16EEESD_Lb0ESL_Lb0EEENS1J_4warp24FragmentIteratorTensorOpIS10_S14_SD_NS_5ArrayISD_Li4ELb0EEESF_EENS1T_20TileIteratorTensorOpIS10_S14_SD_SF_EENS1K_18SharedLoadIteratorINS1R_18CompactedThreadMapESD_Li16EEENS1J_6thread17LinearCombinationISD_Li8ESD_SD_LNS23_9ScaleType4KindE0ELS1D_2ESD_EENSB_ILi0ELi16EEELi1ELi1EEENS4_30GemmIdentityThreadblockSwizzleILi1EEELb0EEEEEvNT_6ParamsE'
thread block = 24,0,0
GPGPU-Sim uArch: Shader 25 bind to kernel 1 '_ZN7cutlass6KernelINS_4gemm6kernel4GemmINS1_11threadblock12MmaPipelinedINS1_9GemmShapeILi64ELi64ELi32EEENS_9transform11threadblock22PredicatedTileIteratorINS_11MatrixShapeILi64ELi32EEENS_6half_tENS_6layout8RowMajorELi1ENS8_29PitchLinearWarpRakedThreadMapINS_16PitchLinearShapeILi32ELi64EEELi128ENSH_ILi4ELi8EEELi8EEELi8ELb0ENSE_9NoPermuteEEENS9_19RegularTileIteratorISC_SD_NSE_37RowMajorTensorOpMultiplicandCrosswiseILi16ELi32EEELi0ESK_Li16EEENSA_INSB_ILi32ELi64EEESD_NSE_11ColumnMajorELi0ESK_Li8ELb0ESL_EENSN_ISR_SD_NSE_40ColumnMajorTensorOpMultiplicandCrosswiseILi16ELi32EEELi1ESK_Li16EEESD_SF_NS4_9MmaPolicyINS1_4warp11MmaTensorOpINS6_ILi32ELi32ELi32EEESD_SP_SD_SV_SD_SF_NSY_17MmaTensorOpPolicyINS_4arch3MmaINS6_ILi16ELi8ELi16EEELi32ESD_SF_SD_SS_SD_SF_NS12_13OpMultiplyAddEEENSB_ILi1ELi1EEEEELi1ELb0EbEENSB_ILi0ELi0EEES1A_Li1EEENS_21NumericArrayConverterISD_SD_Li16ELNS_15FloatRoundStyleE2ENS8_6thread14UnaryTransform8IdentityEEES1H_bEENS_8epilogue11threadblock8EpilogueIS7_S19_Li1ENS1K_22PredicatedTileIteratorINS1K_26OutputTileOptimalThreadMapINS1K_15OutputTileShapeILi64ELi8ELi2ELi1ELi1EEENS1O_ILi1ELi4ELi1ELi1ELi4EEELi128ELi8ELi16EEESD_Lb0ESL_Lb0EEENS1J_4warp24FragmentIteratorTensorOpIS10_S14_SD_NS_5ArrayISD_Li4ELb0EEESF_EENS1T_20TileIteratorTensorOpIS10_S14_SD_SF_EENS1K_18SharedLoadIteratorINS1R_18CompactedThreadMapESD_Li16EEENS1J_6thread17LinearCombinationISD_Li8ESD_SD_LNS23_9ScaleType4KindE0ELS1D_2ESD_EENSB_ILi0ELi16EEELi1ELi1EEENS4_30GemmIdentityThreadblockSwizzleILi1EEELb0EEEEEvNT_6ParamsE'
thread block = 25,0,0
GPGPU-Sim uArch: Shader 26 bind to kernel 1 '_ZN7cutlass6KernelINS_4gemm6kernel4GemmINS1_11threadblock12MmaPipelinedINS1_9GemmShapeILi64ELi64ELi32EEENS_9transform11threadblock22PredicatedTileIteratorINS_11MatrixShapeILi64ELi32EEENS_6half_tENS_6layout8RowMajorELi1ENS8_29PitchLinearWarpRakedThreadMapINS_16PitchLinearShapeILi32ELi64EEELi128ENSH_ILi4ELi8EEELi8EEELi8ELb0ENSE_9NoPermuteEEENS9_19RegularTileIteratorISC_SD_NSE_37RowMajorTensorOpMultiplicandCrosswiseILi16ELi32EEELi0ESK_Li16EEENSA_INSB_ILi32ELi64EEESD_NSE_11ColumnMajorELi0ESK_Li8ELb0ESL_EENSN_ISR_SD_NSE_40ColumnMajorTensorOpMultiplicandCrosswiseILi16ELi32EEELi1ESK_Li16EEESD_SF_NS4_9MmaPolicyINS1_4warp11MmaTensorOpINS6_ILi32ELi32ELi32EEESD_SP_SD_SV_SD_SF_NSY_17MmaTensorOpPolicyINS_4arch3MmaINS6_ILi16ELi8ELi16EEELi32ESD_SF_SD_SS_SD_SF_NS12_13OpMultiplyAddEEENSB_ILi1ELi1EEEEELi1ELb0EbEENSB_ILi0ELi0EEES1A_Li1EEENS_21NumericArrayConverterISD_SD_Li16ELNS_15FloatRoundStyleE2ENS8_6thread14UnaryTransform8IdentityEEES1H_bEENS_8epilogue11threadblock8EpilogueIS7_S19_Li1ENS1K_22PredicatedTileIteratorINS1K_26OutputTileOptimalThreadMapINS1K_15OutputTileShapeILi64ELi8ELi2ELi1ELi1EEENS1O_ILi1ELi4ELi1ELi1ELi4EEELi128ELi8ELi16EEESD_Lb0ESL_Lb0EEENS1J_4warp24FragmentIteratorTensorOpIS10_S14_SD_NS_5ArrayISD_Li4ELb0EEESF_EENS1T_20TileIteratorTensorOpIS10_S14_SD_SF_EENS1K_18SharedLoadIteratorINS1R_18CompactedThreadMapESD_Li16EEENS1J_6thread17LinearCombinationISD_Li8ESD_SD_LNS23_9ScaleType4KindE0ELS1D_2ESD_EENSB_ILi0ELi16EEELi1ELi1EEENS4_30GemmIdentityThreadblockSwizzleILi1EEELb0EEEEEvNT_6ParamsE'
thread block = 26,0,0
GPGPU-Sim uArch: Shader 27 bind to kernel 1 '_ZN7cutlass6KernelINS_4gemm6kernel4GemmINS1_11threadblock12MmaPipelinedINS1_9GemmShapeILi64ELi64ELi32EEENS_9transform11threadblock22PredicatedTileIteratorINS_11MatrixShapeILi64ELi32EEENS_6half_tENS_6layout8RowMajorELi1ENS8_29PitchLinearWarpRakedThreadMapINS_16PitchLinearShapeILi32ELi64EEELi128ENSH_ILi4ELi8EEELi8EEELi8ELb0ENSE_9NoPermuteEEENS9_19RegularTileIteratorISC_SD_NSE_37RowMajorTensorOpMultiplicandCrosswiseILi16ELi32EEELi0ESK_Li16EEENSA_INSB_ILi32ELi64EEESD_NSE_11ColumnMajorELi0ESK_Li8ELb0ESL_EENSN_ISR_SD_NSE_40ColumnMajorTensorOpMultiplicandCrosswiseILi16ELi32EEELi1ESK_Li16EEESD_SF_NS4_9MmaPolicyINS1_4warp11MmaTensorOpINS6_ILi32ELi32ELi32EEESD_SP_SD_SV_SD_SF_NSY_17MmaTensorOpPolicyINS_4arch3MmaINS6_ILi16ELi8ELi16EEELi32ESD_SF_SD_SS_SD_SF_NS12_13OpMultiplyAddEEENSB_ILi1ELi1EEEEELi1ELb0EbEENSB_ILi0ELi0EEES1A_Li1EEENS_21NumericArrayConverterISD_SD_Li16ELNS_15FloatRoundStyleE2ENS8_6thread14UnaryTransform8IdentityEEES1H_bEENS_8epilogue11threadblock8EpilogueIS7_S19_Li1ENS1K_22PredicatedTileIteratorINS1K_26OutputTileOptimalThreadMapINS1K_15OutputTileShapeILi64ELi8ELi2ELi1ELi1EEENS1O_ILi1ELi4ELi1ELi1ELi4EEELi128ELi8ELi16EEESD_Lb0ESL_Lb0EEENS1J_4warp24FragmentIteratorTensorOpIS10_S14_SD_NS_5ArrayISD_Li4ELb0EEESF_EENS1T_20TileIteratorTensorOpIS10_S14_SD_SF_EENS1K_18SharedLoadIteratorINS1R_18CompactedThreadMapESD_Li16EEENS1J_6thread17LinearCombinationISD_Li8ESD_SD_LNS23_9ScaleType4KindE0ELS1D_2ESD_EENSB_ILi0ELi16EEELi1ELi1EEENS4_30GemmIdentityThreadblockSwizzleILi1EEELb0EEEEEvNT_6ParamsE'
thread block = 27,0,0
GPGPU-Sim uArch: Shader 28 bind to kernel 1 '_ZN7cutlass6KernelINS_4gemm6kernel4GemmINS1_11threadblock12MmaPipelinedINS1_9GemmShapeILi64ELi64ELi32EEENS_9transform11threadblock22PredicatedTileIteratorINS_11MatrixShapeILi64ELi32EEENS_6half_tENS_6layout8RowMajorELi1ENS8_29PitchLinearWarpRakedThreadMapINS_16PitchLinearShapeILi32ELi64EEELi128ENSH_ILi4ELi8EEELi8EEELi8ELb0ENSE_9NoPermuteEEENS9_19RegularTileIteratorISC_SD_NSE_37RowMajorTensorOpMultiplicandCrosswiseILi16ELi32EEELi0ESK_Li16EEENSA_INSB_ILi32ELi64EEESD_NSE_11ColumnMajorELi0ESK_Li8ELb0ESL_EENSN_ISR_SD_NSE_40ColumnMajorTensorOpMultiplicandCrosswiseILi16ELi32EEELi1ESK_Li16EEESD_SF_NS4_9MmaPolicyINS1_4warp11MmaTensorOpINS6_ILi32ELi32ELi32EEESD_SP_SD_SV_SD_SF_NSY_17MmaTensorOpPolicyINS_4arch3MmaINS6_ILi16ELi8ELi16EEELi32ESD_SF_SD_SS_SD_SF_NS12_13OpMultiplyAddEEENSB_ILi1ELi1EEEEELi1ELb0EbEENSB_ILi0ELi0EEES1A_Li1EEENS_21NumericArrayConverterISD_SD_Li16ELNS_15FloatRoundStyleE2ENS8_6thread14UnaryTransform8IdentityEEES1H_bEENS_8epilogue11threadblock8EpilogueIS7_S19_Li1ENS1K_22PredicatedTileIteratorINS1K_26OutputTileOptimalThreadMapINS1K_15OutputTileShapeILi64ELi8ELi2ELi1ELi1EEENS1O_ILi1ELi4ELi1ELi1ELi4EEELi128ELi8ELi16EEESD_Lb0ESL_Lb0EEENS1J_4warp24FragmentIteratorTensorOpIS10_S14_SD_NS_5ArrayISD_Li4ELb0EEESF_EENS1T_20TileIteratorTensorOpIS10_S14_SD_SF_EENS1K_18SharedLoadIteratorINS1R_18CompactedThreadMapESD_Li16EEENS1J_6thread17LinearCombinationISD_Li8ESD_SD_LNS23_9ScaleType4KindE0ELS1D_2ESD_EENSB_ILi0ELi16EEELi1ELi1EEENS4_30GemmIdentityThreadblockSwizzleILi1EEELb0EEEEEvNT_6ParamsE'
thread block = 28,0,0
GPGPU-Sim uArch: Shader 29 bind to kernel 1 '_ZN7cutlass6KernelINS_4gemm6kernel4GemmINS1_11threadblock12MmaPipelinedINS1_9GemmShapeILi64ELi64ELi32EEENS_9transform11threadblock22PredicatedTileIteratorINS_11MatrixShapeILi64ELi32EEENS_6half_tENS_6layout8RowMajorELi1ENS8_29PitchLinearWarpRakedThreadMapINS_16PitchLinearShapeILi32ELi64EEELi128ENSH_ILi4ELi8EEELi8EEELi8ELb0ENSE_9NoPermuteEEENS9_19RegularTileIteratorISC_SD_NSE_37RowMajorTensorOpMultiplicandCrosswiseILi16ELi32EEELi0ESK_Li16EEENSA_INSB_ILi32ELi64EEESD_NSE_11ColumnMajorELi0ESK_Li8ELb0ESL_EENSN_ISR_SD_NSE_40ColumnMajorTensorOpMultiplicandCrosswiseILi16ELi32EEELi1ESK_Li16EEESD_SF_NS4_9MmaPolicyINS1_4warp11MmaTensorOpINS6_ILi32ELi32ELi32EEESD_SP_SD_SV_SD_SF_NSY_17MmaTensorOpPolicyINS_4arch3MmaINS6_ILi16ELi8ELi16EEELi32ESD_SF_SD_SS_SD_SF_NS12_13OpMultiplyAddEEENSB_ILi1ELi1EEEEELi1ELb0EbEENSB_ILi0ELi0EEES1A_Li1EEENS_21NumericArrayConverterISD_SD_Li16ELNS_15FloatRoundStyleE2ENS8_6thread14UnaryTransform8IdentityEEES1H_bEENS_8epilogue11threadblock8EpilogueIS7_S19_Li1ENS1K_22PredicatedTileIteratorINS1K_26OutputTileOptimalThreadMapINS1K_15OutputTileShapeILi64ELi8ELi2ELi1ELi1EEENS1O_ILi1ELi4ELi1ELi1ELi4EEELi128ELi8ELi16EEESD_Lb0ESL_Lb0EEENS1J_4warp24FragmentIteratorTensorOpIS10_S14_SD_NS_5ArrayISD_Li4ELb0EEESF_EENS1T_20TileIteratorTensorOpIS10_S14_SD_SF_EENS1K_18SharedLoadIteratorINS1R_18CompactedThreadMapESD_Li16EEENS1J_6thread17LinearCombinationISD_Li8ESD_SD_LNS23_9ScaleType4KindE0ELS1D_2ESD_EENSB_ILi0ELi16EEELi1ELi1EEENS4_30GemmIdentityThreadblockSwizzleILi1EEELb0EEEEEvNT_6ParamsE'
thread block = 29,0,0
[...]
L2_cache_bank[6]: Access = 239988, Miss = 11012, Miss_rate = 0.046, Pending_hits = 8087, Reservation_fails = 49351
L2_cache_bank[7]: Access = 247144, Miss = 12656, Miss_rate = 0.051, Pending_hits = 8053, Reservation_fails = 46816
L2_cache_bank[8]: Access = 220504, Miss = 10520, Miss_rate = 0.048, Pending_hits = 7380, Reservation_fails = 47475
L2_cache_bank[9]: Access = 235220, Miss = 11184, Miss_rate = 0.048, Pending_hits = 7819, Reservation_fails = 49328
L2_cache_bank[10]: Access = 245200, Miss = 11168, Miss_rate = 0.046, Pending_hits = 7914, Reservation_fails = 47468
L2_cache_bank[11]: Access = 233884, Miss = 10452, Miss_rate = 0.045, Pending_hits = 7476, Reservation_fails = 42542
L2_cache_bank[12]: Access = 244612, Miss = 11736, Miss_rate = 0.048, Pending_hits = 7531, Reservation_fails = 46156
L2_cache_bank[13]: Access = 245016, Miss = 12080, Miss_rate = 0.049, Pending_hits = 7445, Reservation_fails = 45041
L2_cache_bank[14]: Access = 225992, Miss = 10588, Miss_rate = 0.047, Pending_hits = 7664, Reservation_fails = 47342
L2_cache_bank[15]: Access = 242388, Miss = 11084, Miss_rate = 0.046, Pending_hits = 7773, Reservation_fails = 45661
L2_cache_bank[16]: Access = 235416, Miss = 10828, Miss_rate = 0.046, Pending_hits = 7578, Reservation_fails = 44972
L2_cache_bank[17]: Access = 237676, Miss = 10972, Miss_rate = 0.046, Pending_hits = 7388, Reservation_fails = 44424
L2_cache_bank[18]: Access = 234568, Miss = 10900, Miss_rate = 0.046, Pending_hits = 7726, Reservation_fails = 48221
L2_cache_bank[19]: Access = 243796, Miss = 11216, Miss_rate = 0.046, Pending_hits = 7678, Reservation_fails = 47035
L2_cache_bank[20]: Access = 235076, Miss = 10636, Miss_rate = 0.045, Pending_hits = 7557, Reservation_fails = 46374
L2_cache_bank[21]: Access = 243672, Miss = 11928, Miss_rate = 0.049, Pending_hits = 7781, Reservation_fails = 44440
L2_cache_bank[22]: Access = 249148, Miss = 11740, Miss_rate = 0.047, Pending_hits = 7675, Reservation_fails = 47043
L2_cache_bank[23]: Access = 227624, Miss = 10548, Miss_rate = 0.046, Pending_hits = 7651, Reservation_fails = 45233
L2_cache_bank[24]: Access = 231160, Miss = 10592, Miss_rate = 0.046, Pending_hits = 7296, Reservation_fails = 45307
L2_cache_bank[25]: Access = 240000, Miss = 10760, Miss_rate = 0.045, Pending_hits = 7320, Reservation_fails = 44400
L2_cache_bank[26]: Access = 238516, Miss = 11512, Miss_rate = 0.048, Pending_hits = 7617, Reservation_fails = 44163
L2_cache_bank[27]: Access = 237096, Miss = 11004, Miss_rate = 0.046, Pending_hits = 7767, Reservation_fails = 43984
L2_cache_bank[28]: Access = 244456, Miss = 11468, Miss_rate = 0.047, Pending_hits = 8086, Reservation_fails = 50321
L2_cache_bank[29]: Access = 246176, Miss = 12020, Miss_rate = 0.049, Pending_hits = 7915, Reservation_fails = 47207
L2_cache_bank[30]: Access = 242608, Miss = 11980, Miss_rate = 0.049, Pending_hits = 7763, Reservation_fails = 51409
L2_cache_bank[31]: Access = 250896, Miss = 11656, Miss_rate = 0.046, Pending_hits = 8069, Reservation_fails = 47140
L2_cache_bank[32]: Access = 245148, Miss = 11360, Miss_rate = 0.046, Pending_hits = 7724, Reservation_fails = 45138
L2_cache_bank[33]: Access = 233100, Miss = 10528, Miss_rate = 0.045, Pending_hits = 7523, Reservation_fails = 48416
L2_cache_bank[34]: Access = 236456, Miss = 11508, Miss_rate = 0.049, Pending_hits = 7828, Reservation_fails = 46578
L2_cache_bank[35]: Access = 244120, Miss = 11840, Miss_rate = 0.049, Pending_hits = 7620, Reservation_fails = 44761
L2_cache_bank[36]: Access = 243216, Miss = 11744, Miss_rate = 0.048, Pending_hits = 7971, Reservation_fails = 48704
L2_cache_bank[37]: Access = 235004, Miss = 10832, Miss_rate = 0.046, Pending_hits = 7848, Reservation_fails = 44376
L2_cache_bank[38]: Access = 244156, Miss = 11072, Miss_rate = 0.045, Pending_hits = 7791, Reservation_fails = 50193
L2_cache_bank[39]: Access = 240856, Miss = 10852, Miss_rate = 0.045, Pending_hits = 8077, Reservation_fails = 48476
L2_cache_bank[40]: Access = 239272, Miss = 12056, Miss_rate = 0.050, Pending_hits = 7557, Reservation_fails = 42697
L2_cache_bank[41]: Access = 233216, Miss = 10888, Miss_rate = 0.047, Pending_hits = 7357, Reservation_fails = 43485
L2_cache_bank[42]: Access = 245248, Miss = 11808, Miss_rate = 0.048, Pending_hits = 7850, Reservation_fails = 45158
L2_cache_bank[43]: Access = 238388, Miss = 10648, Miss_rate = 0.045, Pending_hits = 7677, Reservation_fails = 44249
L2_cache_bank[44]: Access = 230336, Miss = 10564, Miss_rate = 0.046, Pending_hits = 7433, Reservation_fails = 44182
L2_cache_bank[45]: Access = 245776, Miss = 12140, Miss_rate = 0.049, Pending_hits = 7709, Reservation_fails = 48880
L2_cache_bank[46]: Access = 236052, Miss = 11976, Miss_rate = 0.051, Pending_hits = 8023, Reservation_fails = 45945
L2_cache_bank[47]: Access = 241964, Miss = 10664, Miss_rate = 0.044, Pending_hits = 7738, Reservation_fails = 43888
L2_cache_bank[48]: Access = 228036, Miss = 10396, Miss_rate = 0.046, Pending_hits = 7795, Reservation_fails = 48768
L2_cache_bank[49]: Access = 242664, Miss = 10960, Miss_rate = 0.045, Pending_hits = 7941, Reservation_fails = 47826
L2_cache_bank[50]: Access = 231236, Miss = 10680, Miss_rate = 0.046, Pending_hits = 8146, Reservation_fails = 47736
L2_cache_bank[51]: Access = 234604, Miss = 10100, Miss_rate = 0.043, Pending_hits = 7128, Reservation_fails = 43236
L2_cache_bank[52]: Access = 246456, Miss = 11508, Miss_rate = 0.047, Pending_hits = 8100, Reservation_fails = 50847
L2_cache_bank[53]: Access = 242560, Miss = 12564, Miss_rate = 0.052, Pending_hits = 7819, Reservation_fails = 46350
L2_cache_bank[54]: Access = 230072, Miss = 11744, Miss_rate = 0.051, Pending_hits = 7481, Reservation_fails = 48687
L2_cache_bank[55]: Access = 239424, Miss = 11148, Miss_rate = 0.047, Pending_hits = 7807, Reservation_fails = 50745
L2_cache_bank[56]: Access = 242540, Miss = 11908, Miss_rate = 0.049, Pending_hits = 7871, Reservation_fails = 48251
L2_cache_bank[57]: Access = 224024, Miss = 11168, Miss_rate = 0.050, Pending_hits = 7196, Reservation_fails = 42545
L2_cache_bank[58]: Access = 243148, Miss = 12204, Miss_rate = 0.050, Pending_hits = 7559, Reservation_fails = 42297
L2_cache_bank[59]: Access = 238072, Miss = 11572, Miss_rate = 0.049, Pending_hits = 7833, Reservation_fails = 48888
L2_cache_bank[60]: Access = 248516, Miss = 11344, Miss_rate = 0.046, Pending_hits = 7597, Reservation_fails = 46614
L2_cache_bank[61]: Access = 241884, Miss = 10944, Miss_rate = 0.045, Pending_hits = 7349, Reservation_fails = 45768
L2_cache_bank[62]: Access = 232436, Miss = 11032, Miss_rate = 0.047, Pending_hits = 7242, Reservation_fails = 41612
L2_cache_bank[63]: Access = 240192, Miss = 10788, Miss_rate = 0.045, Pending_hits = 8143, Reservation_fails = 48157
L2_cache_bank[64]: Access = 243756, Miss = 12100, Miss_rate = 0.050, Pending_hits = 7795, Reservation_fails = 46664
L2_cache_bank[65]: Access = 247968, Miss = 12352, Miss_rate = 0.050, Pending_hits = 8066, Reservation_fails = 54545
L2_cache_bank[66]: Access = 242556, Miss = 12900, Miss_rate = 0.053, Pending_hits = 7776, Reservation_fails = 48284
L2_cache_bank[67]: Access = 240872, Miss = 12456, Miss_rate = 0.052, Pending_hits = 7657, Reservation_fails = 46372
L2_cache_bank[68]: Access = 244844, Miss = 11704, Miss_rate = 0.048, Pending_hits = 7463, Reservation_fails = 39747
L2_cache_bank[69]: Access = 243892, Miss = 11732, Miss_rate = 0.048, Pending_hits = 7720, Reservation_fails = 46980
L2_cache_bank[70]: Access = 239536, Miss = 11476, Miss_rate = 0.048, Pending_hits = 7881, Reservation_fails = 47676
L2_cache_bank[71]: Access = 238136, Miss = 11172, Miss_rate = 0.047, Pending_hits = 7932, Reservation_fails = 47013
L2_cache_bank[72]: Access = 246112, Miss = 11800, Miss_rate = 0.048, Pending_hits = 7704, Reservation_fails = 42293
L2_cache_bank[73]: Access = 234216, Miss = 11460, Miss_rate = 0.049, Pending_hits = 7926, Reservation_fails = 48029
L2_cache_bank[74]: Access = 225900, Miss = 10996, Miss_rate = 0.049, Pending_hits = 7591, Reservation_fails = 42555
L2_cache_bank[75]: Access = 237976, Miss = 11588, Miss_rate = 0.049, Pending_hits = 7535, Reservation_fails = 46989
L2_cache_bank[76]: Access = 230352, Miss = 10240, Miss_rate = 0.044, Pending_hits = 7542, Reservation_fails = 44513
L2_cache_bank[77]: Access = 240108, Miss = 10936, Miss_rate = 0.046, Pending_hits = 7486, Reservation_fails = 42806
L2_cache_bank[78]: Access = 249984, Miss = 11992, Miss_rate = 0.048, Pending_hits = 8101, Reservation_fails = 45820
L2_cache_bank[79]: Access = 229392, Miss = 10612, Miss_rate = 0.046, Pending_hits = 7688, Reservation_fails = 48228
L2_cache_bank[80]: Access = 240368, Miss = 11112, Miss_rate = 0.046, Pending_hits = 7750, Reservation_fails = 47312
L2_cache_bank[81]: Access = 239160, Miss = 11696, Miss_rate = 0.049, Pending_hits = 7809, Reservation_fails = 47341
L2_cache_bank[82]: Access = 225336, Miss = 10428, Miss_rate = 0.046, Pending_hits = 7256, Reservation_fails = 42854
L2_cache_bank[83]: Access = 236284, Miss = 11016, Miss_rate = 0.047, Pending_hits = 7652, Reservation_fails = 43665
L2_cache_bank[84]: Access = 235516, Miss = 11204, Miss_rate = 0.048, Pending_hits = 7606, Reservation_fails = 43243
L2_cache_bank[85]: Access = 240080, Miss = 11252, Miss_rate = 0.047, Pending_hits = 7643, Reservation_fails = 43051
L2_cache_bank[86]: Access = 234360, Miss = 11000, Miss_rate = 0.047, Pending_hits = 7826, Reservation_fails = 48745
L2_cache_bank[87]: Access = 228588, Miss = 10996, Miss_rate = 0.048, Pending_hits = 7691, Reservation_fails = 49893
L2_cache_bank[88]: Access = 232180, Miss = 10864, Miss_rate = 0.047, Pending_hits = 7533, Reservation_fails = 44388
L2_cache_bank[89]: Access = 242436, Miss = 10792, Miss_rate = 0.045, Pending_hits = 7521, Reservation_fails = 45158
L2_cache_bank[90]: Access = 224000, Miss = 10100, Miss_rate = 0.045, Pending_hits = 7842, Reservation_fails = 49191
L2_cache_bank[91]: Access = 245996, Miss = 11764, Miss_rate = 0.048, Pending_hits = 8230, Reservation_fails = 47655
L2_cache_bank[92]: Access = 230740, Miss = 10596, Miss_rate = 0.046, Pending_hits = 7632, Reservation_fails = 45673
L2_cache_bank[93]: Access = 241388, Miss = 11232, Miss_rate = 0.047, Pending_hits = 8125, Reservation_fails = 45698
L2_cache_bank[94]: Access = 231248, Miss = 10580, Miss_rate = 0.046, Pending_hits = 7627, Reservation_fails = 49561
L2_cache_bank[95]: Access = 241752, Miss = 11456, Miss_rate = 0.047, Pending_hits = 7662, Reservation_fails = 46249
L2_cache_bank[96]: Access = 233504, Miss = 11200, Miss_rate = 0.048, Pending_hits = 7104, Reservation_fails = 39732
L2_cache_bank[97]: Access = 249180, Miss = 11608, Miss_rate = 0.047, Pending_hits = 8229, Reservation_fails = 50132
L2_cache_bank[98]: Access = 230680, Miss = 10424, Miss_rate = 0.045, Pending_hits = 7623, Reservation_fails = 45128
L2_cache_bank[99]: Access = 237468, Miss = 12040, Miss_rate = 0.051, Pending_hits = 7810, Reservation_fails = 43686
L2_cache_bank[100]: Access = 240248, Miss = 11324, Miss_rate = 0.047, Pending_hits = 7513, Reservation_fails = 46548
L2_cache_bank[101]: Access = 243980, Miss = 11608, Miss_rate = 0.048, Pending_hits = 7736, Reservation_fails = 46691
L2_cache_bank[102]: Access = 240652, Miss = 11012, Miss_rate = 0.046, Pending_hits = 7837, Reservation_fails = 50284
L2_cache_bank[103]: Access = 238784, Miss = 11020, Miss_rate = 0.046, Pending_hits = 7787, Reservation_fails = 48632
L2_cache_bank[104]: Access = 233628, Miss = 10568, Miss_rate = 0.045, Pending_hits = 7947, Reservation_fails = 47747
L2_cache_bank[105]: Access = 243100, Miss = 11508, Miss_rate = 0.047, Pending_hits = 7789, Reservation_fails = 44972
L2_cache_bank[106]: Access = 252888, Miss = 12640, Miss_rate = 0.050, Pending_hits = 8196, Reservation_fails = 52463
L2_cache_bank[107]: Access = 239340, Miss = 10628, Miss_rate = 0.044, Pending_hits = 7569, Reservation_fails = 46548
L2_cache_bank[108]: Access = 250608, Miss = 12248, Miss_rate = 0.049, Pending_hits = 7841, Reservation_fails = 49139
L2_cache_bank[109]: Access = 237132, Miss = 10896, Miss_rate = 0.046, Pending_hits = 7970, Reservation_fails = 50079
L2_cache_bank[110]: Access = 244296, Miss = 11304, Miss_rate = 0.046, Pending_hits = 7770, Reservation_fails = 46286
L2_cache_bank[111]: Access = 251576, Miss = 11680, Miss_rate = 0.046, Pending_hits = 7824, Reservation_fails = 47861
L2_cache_bank[112]: Access = 229496, Miss = 11900, Miss_rate = 0.052, Pending_hits = 7092, Reservation_fails = 43152
L2_cache_bank[113]: Access = 234000, Miss = 10972, Miss_rate = 0.047, Pending_hits = 7558, Reservation_fails = 44382
L2_cache_bank[114]: Access = 249308, Miss = 12256, Miss_rate = 0.049, Pending_hits = 8212, Reservation_fails = 49754
L2_cache_bank[115]: Access = 240548, Miss = 12424, Miss_rate = 0.052, Pending_hits = 7840, Reservation_fails = 49291
L2_cache_bank[116]: Access = 245336, Miss = 11892, Miss_rate = 0.048, Pending_hits = 7564, Reservation_fails = 41553
L2_cache_bank[117]: Access = 238768, Miss = 11776, Miss_rate = 0.049, Pending_hits = 7767, Reservation_fails = 46661
L2_cache_bank[118]: Access = 239280, Miss = 10516, Miss_rate = 0.044, Pending_hits = 7481, Reservation_fails = 44158
L2_cache_bank[119]: Access = 227824, Miss = 10732, Miss_rate = 0.047, Pending_hits = 7654, Reservation_fails = 45125
L2_cache_bank[120]: Access = 237108, Miss = 11576, Miss_rate = 0.049, Pending_hits = 7807, Reservation_fails = 45529
L2_cache_bank[121]: Access = 242716, Miss = 10800, Miss_rate = 0.044, Pending_hits = 7803, Reservation_fails = 50000
L2_cache_bank[122]: Access = 239144, Miss = 11336, Miss_rate = 0.047, Pending_hits = 8014, Reservation_fails = 48349
L2_cache_bank[123]: Access = 232992, Miss = 10756, Miss_rate = 0.046, Pending_hits = 7832, Reservation_fails = 45525
L2_cache_bank[124]: Access = 237896, Miss = 10596, Miss_rate = 0.045, Pending_hits = 7924, Reservation_fails = 46396
L2_cache_bank[125]: Access = 238228, Miss = 12020, Miss_rate = 0.050, Pending_hits = 7722, Reservation_fails = 45010
L2_cache_bank[126]: Access = 246856, Miss = 12192, Miss_rate = 0.049, Pending_hits = 7594, Reservation_fails = 47228
L2_cache_bank[127]: Access = 251580, Miss = 11968, Miss_rate = 0.048, Pending_hits = 7922, Reservation_fails = 45465
L2_total_cache_accesses = 30609408
L2_total_cache_misses = 1450932
L2_total_cache_miss_rate = 0.0474
L2_total_cache_pending_hits = 989071
L2_total_cache_reservation_fails = 5949095
L2_total_cache_breakdown:
	L2_cache_stats_breakdown[GLOBAL_ACC_R][HIT] = 28169405
	L2_cache_stats_breakdown[GLOBAL_ACC_R][HIT_RESERVED] = 989071
	L2_cache_stats_breakdown[GLOBAL_ACC_R][MISS] = 252141
	L2_cache_stats_breakdown[GLOBAL_ACC_R][RESERVATION_FAIL] = 5949095
	L2_cache_stats_breakdown[GLOBAL_ACC_R][SECTOR_MISS] = 756423
	L2_cache_stats_breakdown[GLOBAL_ACC_R][MSHR_HIT] = 989071
	L2_cache_stats_breakdown[LOCAL_ACC_R][HIT] = 0
	L2_cache_stats_breakdown[LOCAL_ACC_R][HIT_RESERVED] = 0
	L2_cache_stats_breakdown[LOCAL_ACC_R][MISS] = 0
	L2_cache_stats_breakdown[LOCAL_ACC_R][RESERVATION_FAIL] = 0
	L2_cache_stats_breakdown[LOCAL_ACC_R][SECTOR_MISS] = 0
	L2_cache_stats_breakdown[LOCAL_ACC_R][MSHR_HIT] = 0
	L2_cache_stats_breakdown[CONST_ACC_R][HIT] = 0
	L2_cache_stats_breakdown[CONST_ACC_R][HIT_RESERVED] = 0
	L2_cache_stats_breakdown[CONST_ACC_R][MISS] = 0
	L2_cache_stats_breakdown[CONST_ACC_R][RESERVATION_FAIL] = 0
	L2_cache_stats_breakdown[CONST_ACC_R][SECTOR_MISS] = 0
	L2_cache_stats_breakdown[CONST_ACC_R][MSHR_HIT] = 0
	L2_cache_stats_breakdown[TEXTURE_ACC_R][HIT] = 0
	L2_cache_stats_breakdown[TEXTURE_ACC_R][HIT_RESERVED] = 0
	L2_cache_stats_breakdown[TEXTURE_ACC_R][MISS] = 0
	L2_cache_stats_breakdown[TEXTURE_ACC_R][RESERVATION_FAIL] = 0
	L2_cache_stats_breakdown[TEXTURE_ACC_R][SECTOR_MISS] = 0
	L2_cache_stats_breakdown[TEXTURE_ACC_R][MSHR_HIT] = 0
	L2_cache_stats_breakdown[GLOBAL_ACC_W][HIT] = 0
	L2_cache_stats_breakdown[GLOBAL_ACC_W][HIT_RESERVED] = 0
	L2_cache_stats_breakdown[GLOBAL_ACC_W][MISS] = 110592
	L2_cache_stats_breakdown[GLOBAL_ACC_W][RESERVATION_FAIL] = 0
	L2_cache_stats_breakdown[GLOBAL_ACC_W][SECTOR_MISS] = 331776
	L2_cache_stats_breakdown[GLOBAL_ACC_W][MSHR_HIT] = 0
	L2_cache_stats_breakdown[LOCAL_ACC_W][HIT] = 0
	L2_cache_stats_breakdown[LOCAL_ACC_W][HIT_RESERVED] = 0
	L2_cache_stats_breakdown[LOCAL_ACC_W][MISS] = 0
	L2_cache_stats_breakdown[LOCAL_ACC_W][RESERVATION_FAIL] = 0
	L2_cache_stats_breakdown[LOCAL_ACC_W][SECTOR_MISS] = 0
	L2_cache_stats_breakdown[LOCAL_ACC_W][MSHR_HIT] = 0
	L2_cache_stats_breakdown[L1_WRBK_ACC][HIT] = 0
	L2_cache_stats_breakdown[L1_WRBK_ACC][HIT_RESERVED] = 0
	L2_cache_stats_breakdown[L1_WRBK_ACC][MISS] = 0
	L2_cache_stats_breakdown[L1_WRBK_ACC][RESERVATION_FAIL] = 0
	L2_cache_stats_breakdown[L1_WRBK_ACC][SECTOR_MISS] = 0
	L2_cache_stats_breakdown[L1_WRBK_ACC][MSHR_HIT] = 0
	L2_cache_stats_breakdown[L2_WRBK_ACC][HIT] = 0
	L2_cache_stats_breakdown[L2_WRBK_ACC][HIT_RESERVED] = 0
	L2_cache_stats_breakdown[L2_WRBK_ACC][MISS] = 0
	L2_cache_stats_breakdown[L2_WRBK_ACC][RESERVATION_FAIL] = 0
	L2_cache_stats_breakdown[L2_WRBK_ACC][SECTOR_MISS] = 0
	L2_cache_stats_breakdown[L2_WRBK_ACC][MSHR_HIT] = 0
	L2_cache_stats_breakdown[INST_ACC_R][HIT] = 0
	L2_cache_stats_breakdown[INST_ACC_R][HIT_RESERVED] = 0
	L2_cache_stats_breakdown[INST_ACC_R][MISS] = 0
	L2_cache_stats_breakdown[INST_ACC_R][RESERVATION_FAIL] = 0
	L2_cache_stats_breakdown[INST_ACC_R][SECTOR_MISS] = 0
	L2_cache_stats_breakdown[INST_ACC_R][MSHR_HIT] = 0
	L2_cache_stats_breakdown[L1_WR_ALLOC_R][HIT] = 0
	L2_cache_stats_breakdown[L1_WR_ALLOC_R][HIT_RESERVED] = 0
	L2_cache_stats_breakdown[L1_WR_ALLOC_R][MISS] = 0
	L2_cache_stats_breakdown[L1_WR_ALLOC_R][RESERVATION_FAIL] = 0
	L2_cache_stats_breakdown[L1_WR_ALLOC_R][SECTOR_MISS] = 0
	L2_cache_stats_breakdown[L1_WR_ALLOC_R][MSHR_HIT] = 0
	L2_cache_stats_breakdown[L2_WR_ALLOC_R][HIT] = 0
	L2_cache_stats_breakdown[L2_WR_ALLOC_R][HIT_RESERVED] = 0
	L2_cache_stats_breakdown[L2_WR_ALLOC_R][MISS] = 0
	L2_cache_stats_breakdown[L2_WR_ALLOC_R][RESERVATION_FAIL] = 0
	L2_cache_stats_breakdown[L2_WR_ALLOC_R][SECTOR_MISS] = 0
	L2_cache_stats_breakdown[L2_WR_ALLOC_R][MSHR_HIT] = 0
	L2_cache_stats_breakdown[GLOBAL_ACC_R][TOTAL_ACCESS] = 30167040
	L2_cache_stats_breakdown[GLOBAL_ACC_W][TOTAL_ACCESS] = 442368
L2_total_cache_reservation_fail_breakdown:
	L2_cache_stats_fail_breakdown[GLOBAL_ACC_R][MSHR_MERGE_ENRTY_FAIL] = 5949095
L2_cache_data_port_util = 0.275
L2_cache_fill_port_util = 0.010

icnt_total_pkts_mem_to_simt=30609408
icnt_total_pkts_simt_to_mem=30609408
LD_mem_lat_dist  0 0 0 0 0 0 0 0 0 0 0 0 0 0 0 0 0 0 0 0 0 0 0 0 0 0 0
ST_mem_lat_dist  0 0 0 0 0 0 0 0 0 0 0 0 0 0 0 0 0 0 0 0 0 0 0 0 0 0 0
----------------------------Interconnect-DETAILS--------------------------------
Req_Network_injected_packets_num = 30609408
Req_Network_cycles = 804234
Req_Network_injected_packets_per_cycle =      38.0603 
Req_Network_conflicts_per_cycle =       8.6578
Req_Network_conflicts_per_cycle_util =       8.7025
Req_Bank_Level_Parallism =      38.2572
Req_Network_in_buffer_full_per_cycle =       0.0000
Req_Network_in_buffer_avg_util =       1.9315
Req_Network_out_buffer_full_per_cycle =       0.0000
Req_Network_out_buffer_avg_util =       1.1839

Reply_Network_injected_packets_num = 30609408
Reply_Network_cycles = 804234
Reply_Network_injected_packets_per_cycle =       38.0603
Reply_Network_conflicts_per_cycle =       73.9978
Reply_Network_conflicts_per_cycle_util =      74.3443
Reply_Bank_Level_Parallism =      38.2385
Reply_Network_in_buffer_full_per_cycle =       0.0000
Reply_Network_in_buffer_avg_util =      21.8099
Reply_Network_out_buffer_full_per_cycle =       0.0000
Reply_Network_out_buffer_avg_util =       0.3524
----------------------------END-of-Interconnect-DETAILS-------------------------


gpgpu_simulation_time = 0 days, 0 hrs, 52 min, 48 sec (3168 sec)
gpgpu_simulation_rate = 551493 (inst/sec)
gpgpu_simulation_rate = 253 (cycle/sec)
gpgpu_silicon_slowdown = 5573122x
GPGPU-Sim: *** simulation thread exiting ***
GPGPU-Sim: *** exit detected ***
